839
     RDKit          2D

 42 43  0  0  0  0  0  0  0  0999 V2000
    4.5080   -1.3162    0.0000 S   0  0  0  0  0  0  0  0  0  0  0  0
    4.5080    0.3339    0.0000 O   0  0  0  0  0  0  0  0  0  0  0  0
    4.0955   -0.6017    0.0000 O   0  0  0  0  0  0  0  0  0  0  0  0
    4.9205   -2.0306    0.0000 O   0  0  0  0  0  0  0  0  0  0  0  0
    5.9370    1.1589    0.0000 N   0  0  0  0  0  0  0  0  0  0  0  0
    5.9370    0.3339    0.0000 N   0  0  0  0  0  0  0  0  0  0  0  0
    5.2224   -0.9036    0.0000 N   0  0  0  0  0  0  0  0  0  0  0  0
    5.5245    2.9662    0.0000 C   0  0  0  0  0  0  0  0  0  0  0  0
    6.3495    2.9662    0.0000 C   0  0  0  0  0  0  0  0  0  0  0  0
    5.0101    2.3212    0.0000 C   0  0  0  0  0  0  0  0  0  0  0  0
    6.8638    2.3212    0.0000 C   0  0  0  0  0  0  0  0  0  0  0  0
    5.1937    1.5169    0.0000 C   0  0  0  0  0  0  0  0  0  0  0  0
    6.6803    1.5169    0.0000 C   0  0  0  0  0  0  0  0  0  0  0  0
    5.2224   -0.0786    0.0000 C   0  0  0  0  0  0  0  0  0  0  0  0
    3.7935   -1.7287    0.0000 C   0  0  0  0  0  0  0  0  0  0  0  0
    3.0791   -1.3162    0.0000 C   0  0  0  0  0  0  0  0  0  0  0  0
    3.7935   -2.5537    0.0000 C   0  0  0  0  0  0  0  0  0  0  0  0
    2.3645   -2.5537    0.0000 C   0  0  0  0  0  0  0  0  0  0  0  0
    2.3645   -1.7287    0.0000 C   0  0  0  0  0  0  0  0  0  0  0  0
    3.0791   -2.9662    0.0000 C   0  0  0  0  0  0  0  0  0  0  0  0
    1.6500   -2.9662    0.0000 C   0  0  0  0  0  0  0  0  0  0  0  0
    0.0000    0.0000    0.0000 H   0  0  0  0  0  0  0  0  0  0  0  0
    0.0000    0.0000    0.0000 H   0  0  0  0  0  0  0  0  0  0  0  0
    0.0000    0.0000    0.0000 H   0  0  0  0  0  0  0  0  0  0  0  0
    0.0000    0.0000    0.0000 H   0  0  0  0  0  0  0  0  0  0  0  0
    0.0000    0.0000    0.0000 H   0  0  0  0  0  0  0  0  0  0  0  0
    0.0000    0.0000    0.0000 H   0  0  0  0  0  0  0  0  0  0  0  0
    0.0000    0.0000    0.0000 H   0  0  0  0  0  0  0  0  0  0  0  0
    0.0000    0.0000    0.0000 H   0  0  0  0  0  0  0  0  0  0  0  0
    0.0000    0.0000    0.0000 H   0  0  0  0  0  0  0  0  0  0  0  0
    0.0000    0.0000    0.0000 H   0  0  0  0  0  0  0  0  0  0  0  0
    0.0000    0.0000    0.0000 H   0  0  0  0  0  0  0  0  0  0  0  0
    0.0000    0.0000    0.0000 H   0  0  0  0  0  0  0  0  0  0  0  0
    0.0000    0.0000    0.0000 H   0  0  0  0  0  0  0  0  0  0  0  0
    0.0000    0.0000    0.0000 H   0  0  0  0  0  0  0  0  0  0  0  0
    0.0000    0.0000    0.0000 H   0  0  0  0  0  0  0  0  0  0  0  0
    0.0000    0.0000    0.0000 H   0  0  0  0  0  0  0  0  0  0  0  0
    0.0000    0.0000    0.0000 H   0  0  0  0  0  0  0  0  0  0  0  0
    0.0000    0.0000    0.0000 H   0  0  0  0  0  0  0  0  0  0  0  0
    0.0000    0.0000    0.0000 H   0  0  0  0  0  0  0  0  0  0  0  0
    0.0000    0.0000    0.0000 H   0  0  0  0  0  0  0  0  0  0  0  0
    0.0000    0.0000    0.0000 H   0  0  0  0  0  0  0  0  0  0  0  0
  1  3  2  0
  1  4  2  0
  1  7  1  0
  1 15  1  0
  2 14  2  0
  5  6  1  0
  5 12  1  0
  5 13  1  0
  6 14  1  0
  7 14  1  0
  8  9  1  0
  8 10  1  0
  9 11  1  0
 10 12  1  0
 11 13  1  0
 15 16  2  0
 15 17  1  0
 16 19  1  0
 17 20  2  0
 18 19  2  0
 18 20  1  0
 18 21  1  0
  6 22  1  0
  7 23  1  0
  8 24  1  0
  8 25  1  0
  9 26  1  0
  9 27  1  0
 10 28  1  0
 10 29  1  0
 11 30  1  0
 11 31  1  0
 12 32  1  0
 12 33  1  0
 13 34  1  0
 13 35  1  0
 16 36  1  0
 17 37  1  0
 19 38  1  0
 20 39  1  0
 21 40  1  0
 21 41  1  0
 21 42  1  0
M  END
>  <ALOGPS_LOGP>  (1) 
1.40

>  <ALOGPS_LOGS>  (1) 
-3.01

>  <ALOGPS_SOLUBILITY>  (1) 
3.08e-01 g/l

>  <DATABASE_ID>  (1) 
DB00839

>  <DATABASE_NAME>  (1) 
drugbank

>  <DRUGBANK_ID>  (1) 
DB00839

>  <DRUG_GROUPS>  (1) 
approved

>  <EXACT_MASS>  (1) 
311.130362243

>  <FORMULA>  (1) 
C14H21N3O3S

>  <GENERIC_NAME>  (1) 
Tolazamide

>  <INCHI_IDENTIFIER>  (1) 
InChI=1S/C14H21N3O3S/c1-12-6-8-13(9-7-12)21(19,20)16-14(18)15-17-10-4-2-3-5-11-17/h6-9H,2-5,10-11H2,1H3,(H2,15,16,18)

>  <INCHI_KEY>  (1) 
OUDSBRTVNLOZBN-UHFFFAOYSA-N

>  <INTERNATIONAL_BRANDS>  (1) 
Desumide; Esulin; Norglycin; Tolanase; Tolinase

>  <JCHEM_ACCEPTOR_COUNT>  (1) 
4

>  <JCHEM_AVERAGE_POLARIZABILITY>  (1) 
32.82197399479278

>  <JCHEM_BIOAVAILABILITY>  (1) 
1

>  <JCHEM_DONOR_COUNT>  (1) 
2

>  <JCHEM_FORMAL_CHARGE>  (1) 
0

>  <JCHEM_GHOSE_FILTER>  (1) 
1

>  <JCHEM_IUPAC>  (1) 
1-(azepan-1-yl)-3-(4-methylbenzenesulfonyl)urea

>  <JCHEM_LOGP>  (1) 
1.9119900006666664

>  <JCHEM_MDDR_LIKE_RULE>  (1) 
0

>  <JCHEM_NUMBER_OF_RINGS>  (1) 
2

>  <JCHEM_PHYSIOLOGICAL_CHARGE>  (1) 
-1

>  <JCHEM_PKA>  (1) 
14.165952319349092

>  <JCHEM_PKA_STRONGEST_ACIDIC>  (1) 
4.072017517776506

>  <JCHEM_PKA_STRONGEST_BASIC>  (1) 
1.6132861507929601

>  <JCHEM_POLAR_SURFACE_AREA>  (1) 
78.51

>  <JCHEM_REFRACTIVITY>  (1) 
81.33610000000002

>  <JCHEM_ROTATABLE_BOND_COUNT>  (1) 
2

>  <JCHEM_RULE_OF_FIVE>  (1) 
1

>  <JCHEM_TRADITIONAL_IUPAC>  (1) 
tolazamide

>  <JCHEM_VEBER_RULE>  (1) 
0

>  <MOLECULAR_WEIGHT>  (1) 
311.4

>  <PRODUCTS>  (1) 
Tolazamide

>  <SECONDARY_ACCESSION_NUMBERS>  (1) 
APRD01267

>  <SMILES>  (1) 
CC1=CC=C(C=C1)S(=O)(=O)NC(=O)NN1CCCCCC1

>  <SYNONYMS>  (1) 
1-(Hexahydro-1-azepinyl)-3-p-tolylsulfonylurea; 1-(Hexahydro-1H-azepin-1-yl)-3-(p-tolylsulfonyl)urea; 4-(p-Tolylsulfonyl)-1,1-hexamethylenesemicarbazide; N-(p-Toluenesulfonyl)-N'-hexamethyleniminourea; Tolazamid; Tolazamida; Tolazamide; Tolazamidum

$$$$
