610
     RDKit          2D

 25 25  0  0  1  0  0  0  0  0999 V2000
    2.3645    1.1592    0.0000 O   0  0  0  0  0  0  0  0  0  0  0  0
    1.6500   -1.7284    0.0000 O   0  0  0  0  0  0  0  0  0  0  0  0
    3.7935    1.9842    0.0000 N   0  0  0  0  0  0  0  0  0  0  0  0
    3.0791    0.7466    0.0000 C   0  0  0  0  0  0  0  0  0  0  0  0
    3.7935    1.1592    0.0000 C   0  0  0  0  0  0  0  0  0  0  0  0
    3.0791   -0.0784    0.0000 C   0  0  0  0  0  0  0  0  0  0  0  0
    4.5080    0.7466    0.0000 C   0  0  0  0  0  0  0  0  0  0  0  0
    2.3645   -0.4909    0.0000 C   0  0  0  0  0  0  0  0  0  0  0  0
    3.7935   -0.4909    0.0000 C   0  0  0  0  0  0  0  0  0  0  0  0
    2.3645   -1.3159    0.0000 C   0  0  0  0  0  0  0  0  0  0  0  0
    3.7935   -1.3159    0.0000 C   0  0  0  0  0  0  0  0  0  0  0  0
    3.0791   -1.7284    0.0000 C   0  0  0  0  0  0  0  0  0  0  0  0
    0.0000    0.0000    0.0000 H   0  0  0  0  0  0  0  0  0  0  0  0
    0.0000    0.0000    0.0000 H   0  0  0  0  0  0  0  0  0  0  0  0
    0.0000    0.0000    0.0000 H   0  0  0  0  0  0  0  0  0  0  0  0
    0.0000    0.0000    0.0000 H   0  0  0  0  0  0  0  0  0  0  0  0
    0.0000    0.0000    0.0000 H   0  0  0  0  0  0  0  0  0  0  0  0
    0.0000    0.0000    0.0000 H   0  0  0  0  0  0  0  0  0  0  0  0
    0.0000    0.0000    0.0000 H   0  0  0  0  0  0  0  0  0  0  0  0
    0.0000    0.0000    0.0000 H   0  0  0  0  0  0  0  0  0  0  0  0
    0.0000    0.0000    0.0000 H   0  0  0  0  0  0  0  0  0  0  0  0
    0.0000    0.0000    0.0000 H   0  0  0  0  0  0  0  0  0  0  0  0
    0.0000    0.0000    0.0000 H   0  0  0  0  0  0  0  0  0  0  0  0
    0.0000    0.0000    0.0000 H   0  0  0  0  0  0  0  0  0  0  0  0
    0.0000    0.0000    0.0000 H   0  0  0  0  0  0  0  0  0  0  0  0
  4  1  1  1
  2 10  1  0
  5  3  1  1
  4  5  1  0
  4  6  1  0
  5  7  1  0
  6  8  2  0
  6  9  1  0
  8 10  1  0
  9 11  2  0
 10 12  2  0
 11 12  1  0
  1 13  1  0
  2 14  1  0
  3 15  1  0
  3 16  1  0
  4 17  1  0
  5 18  1  0
  7 19  1  0
  7 20  1  0
  7 21  1  0
  8 22  1  0
  9 23  1  0
 11 24  1  0
 12 25  1  0
M  END
>  <ALOGPS_LOGP>  (1) 
-0.59

>  <ALOGPS_LOGS>  (1) 
-1.12

>  <ALOGPS_SOLUBILITY>  (1) 
1.28e+01 g/l

>  <DATABASE_ID>  (1) 
DB00610

>  <DATABASE_NAME>  (1) 
drugbank

>  <DRUGBANK_ID>  (1) 
DB00610

>  <DRUG_GROUPS>  (1) 
approved; investigational

>  <EXACT_MASS>  (1) 
167.094628665

>  <FORMULA>  (1) 
C9H13NO2

>  <GENERIC_NAME>  (1) 
Metaraminol

>  <INCHI_IDENTIFIER>  (1) 
InChI=1S/C9H13NO2/c1-6(10)9(12)7-3-2-4-8(11)5-7/h2-6,9,11-12H,10H2,1H3/t6-,9-/m0/s1

>  <INCHI_KEY>  (1) 
WXFIGDLSSYIKKV-RCOVLWMOSA-N

>  <INTERNATIONAL_BRANDS>  (1) 
Aramine; Metaramin; Pressonex

>  <JCHEM_ACCEPTOR_COUNT>  (1) 
3

>  <JCHEM_AVERAGE_POLARIZABILITY>  (1) 
17.842232110142223

>  <JCHEM_BIOAVAILABILITY>  (1) 
1

>  <JCHEM_DONOR_COUNT>  (1) 
3

>  <JCHEM_FORMAL_CHARGE>  (1) 
0

>  <JCHEM_GHOSE_FILTER>  (1) 
1

>  <JCHEM_IUPAC>  (1) 
3-[(1R,2S)-2-amino-1-hydroxypropyl]phenol

>  <JCHEM_LOGP>  (1) 
-0.04507975681121092

>  <JCHEM_MDDR_LIKE_RULE>  (1) 
0

>  <JCHEM_NUMBER_OF_RINGS>  (1) 
1

>  <JCHEM_PHYSIOLOGICAL_CHARGE>  (1) 
1

>  <JCHEM_PKA>  (1) 
14.006501188697204

>  <JCHEM_PKA_STRONGEST_ACIDIC>  (1) 
9.03157879634259

>  <JCHEM_PKA_STRONGEST_BASIC>  (1) 
9.67903155053189

>  <JCHEM_POLAR_SURFACE_AREA>  (1) 
66.48

>  <JCHEM_REFRACTIVITY>  (1) 
46.893600000000006

>  <JCHEM_ROTATABLE_BOND_COUNT>  (1) 
2

>  <JCHEM_RULE_OF_FIVE>  (1) 
1

>  <JCHEM_TRADITIONAL_IUPAC>  (1) 
metaraminol

>  <JCHEM_VEBER_RULE>  (1) 
0

>  <MOLECULAR_WEIGHT>  (1) 
167.205

>  <SALTS>  (1) 
Metaraminol Bitartrate; Metaraminol Tartrate

>  <SECONDARY_ACCESSION_NUMBERS>  (1) 
APRD00555

>  <SMILES>  (1) 
C[C@H](N)[C@H](O)C1=CC(O)=CC=C1

>  <SYNONYMS>  (1) 
Metaraminol; MÃ©taraminol ; Metaraminolum

$$$$
