
     RDKit          2D

 56 59  0  0  1  0  0  0  0  0999 V2000
    0.7145   -0.4125    0.0000 C   0  0  0  0  0  0  0  0  0  0  0  0
    0.7145    0.4125    0.0000 C   0  0  0  0  0  0  0  0  0  0  0  0
   -0.7145   -0.4125    0.0000 C   0  0  0  0  0  0  0  0  0  0  0  0
    0.0000   -0.8250    0.0000 C   0  0  0  0  0  0  0  0  0  0  0  0
    0.0000    0.8250    0.0000 C   0  0  0  0  0  0  0  0  0  0  0  0
   -0.7145    0.4125    0.0000 C   0  0  0  0  0  0  0  0  0  0  0  0
   -2.1434    0.4125    0.0000 C   0  0  0  0  0  0  0  0  0  0  0  0
   -2.1434   -0.4125    0.0000 C   0  0  0  0  0  0  0  0  0  0  0  0
   -1.4289   -0.8250    0.0000 C   0  0  0  0  0  0  0  0  0  0  0  0
   -1.4289    0.8250    0.0000 C   0  0  0  0  0  0  0  0  0  0  0  0
    0.7145    2.0625    0.0000 C   0  0  0  0  0  0  0  0  0  0  0  0
    0.0000    1.6500    0.0000 C   0  0  0  0  0  0  0  0  0  0  0  0
    2.2136    0.5701    0.0000 C   0  0  0  0  0  0  0  0  0  0  0  0
    2.6985    1.2375    0.0000 C   0  0  0  0  0  0  0  0  0  0  0  0
    2.2136    1.9049    0.0000 C   0  0  0  0  0  0  0  0  0  0  0  0
   -2.8579   -0.8250    0.0000 O   0  0  0  0  0  0  0  0  0  0  0  0
    0.0000    0.0000    0.0000 Cl  0  0  0  0  0  0  0  0  0  0  0  0
    1.4289    1.6500    0.0000 C   0  0  0  0  0  0  0  0  0  0  0  0
    1.4289    2.4750    0.0000 C   0  0  0  0  0  0  0  0  0  0  0  0
    1.4289    0.8250    0.0000 C   0  0  0  0  0  0  0  0  0  0  0  0
   -0.7145    1.2375    0.0000 C   0  0  0  0  0  0  0  0  0  0  0  0
   -0.7145    2.0625    0.0000 O   0  0  0  0  0  0  0  0  0  0  0  0
    3.5235    1.2375    0.0000 C   0  0  0  0  0  0  0  0  0  0  0  0
    2.2136    2.7299    0.0000 C   0  0  0  0  0  0  0  0  0  0  0  0
    2.9281    3.1424    0.0000 C   0  0  0  0  0  0  0  0  0  0  0  0
    3.6425    2.7299    0.0000 Cl  0  0  0  0  0  0  0  0  0  0  0  0
    1.4991    3.1424    0.0000 O   0  0  0  0  0  0  0  0  0  0  0  0
    2.9281    2.3174    0.0000 O   0  0  0  0  0  0  0  0  0  0  0  0
    0.0000    0.0000    0.0000 H   0  0  0  0  0  0  0  0  0  0  0  0
    0.0000    0.0000    0.0000 H   0  0  0  0  0  0  0  0  0  0  0  0
    0.0000    0.0000    0.0000 H   0  0  0  0  0  0  0  0  0  0  0  0
    0.0000    0.0000    0.0000 H   0  0  0  0  0  0  0  0  0  0  0  0
    0.0000    0.0000    0.0000 H   0  0  0  0  0  0  0  0  0  0  0  0
    0.0000    0.0000    0.0000 H   0  0  0  0  0  0  0  0  0  0  0  0
    0.0000    0.0000    0.0000 H   0  0  0  0  0  0  0  0  0  0  0  0
    0.0000    0.0000    0.0000 H   0  0  0  0  0  0  0  0  0  0  0  0
    0.0000    0.0000    0.0000 H   0  0  0  0  0  0  0  0  0  0  0  0
    0.0000    0.0000    0.0000 H   0  0  0  0  0  0  0  0  0  0  0  0
    0.0000    0.0000    0.0000 H   0  0  0  0  0  0  0  0  0  0  0  0
    0.0000    0.0000    0.0000 H   0  0  0  0  0  0  0  0  0  0  0  0
    0.0000    0.0000    0.0000 H   0  0  0  0  0  0  0  0  0  0  0  0
    0.0000    0.0000    0.0000 H   0  0  0  0  0  0  0  0  0  0  0  0
    0.0000    0.0000    0.0000 H   0  0  0  0  0  0  0  0  0  0  0  0
    0.0000    0.0000    0.0000 H   0  0  0  0  0  0  0  0  0  0  0  0
    0.0000    0.0000    0.0000 H   0  0  0  0  0  0  0  0  0  0  0  0
    0.0000    0.0000    0.0000 H   0  0  0  0  0  0  0  0  0  0  0  0
    0.0000    0.0000    0.0000 H   0  0  0  0  0  0  0  0  0  0  0  0
    0.0000    0.0000    0.0000 H   0  0  0  0  0  0  0  0  0  0  0  0
    0.0000    0.0000    0.0000 H   0  0  0  0  0  0  0  0  0  0  0  0
    0.0000    0.0000    0.0000 H   0  0  0  0  0  0  0  0  0  0  0  0
    0.0000    0.0000    0.0000 H   0  0  0  0  0  0  0  0  0  0  0  0
    0.0000    0.0000    0.0000 H   0  0  0  0  0  0  0  0  0  0  0  0
    0.0000    0.0000    0.0000 H   0  0  0  0  0  0  0  0  0  0  0  0
    0.0000    0.0000    0.0000 H   0  0  0  0  0  0  0  0  0  0  0  0
    0.0000    0.0000    0.0000 H   0  0  0  0  0  0  0  0  0  0  0  0
    0.0000    0.0000    0.0000 H   0  0  0  0  0  0  0  0  0  0  0  0
  2  1  1  0
 20  2  1  0
  9  3  2  0
  3  4  1  0
  4  1  1  0
  2  5  1  0
  5 12  1  0
  5 17  1  6
  6  3  1  0
  5  6  1  0
  6 10  1  0
  6 21  1  1
  7  8  1  0
  7 10  2  0
  8  9  1  0
  8 16  2  0
 18 11  1  0
 11 12  1  0
 20 13  1  0
 13 14  1  0
 15 14  1  0
 18 15  1  0
 20 18  1  0
 18 19  1  1
 12 22  1  1
 14 23  1  1
 15 24  1  1
 24 25  1  0
 25 26  1  0
 24 27  2  0
 15 28  1  0
  1 29  1  0
  1 30  1  0
  2 31  1  1
  4 32  1  0
  4 33  1  0
  7 34  1  0
  9 35  1  0
 10 36  1  0
 11 37  1  0
 11 38  1  0
 12 39  1  0
 13 40  1  0
 13 41  1  0
 14 42  1  0
 19 43  1  0
 19 44  1  0
 19 45  1  0
 20 46  1  6
 21 47  1  0
 21 48  1  0
 21 49  1  0
 22 50  1  0
 23 51  1  0
 23 52  1  0
 23 53  1  0
 25 54  1  0
 25 55  1  0
 28 56  1  0
M  END
>  <ALOGPS_LOGP>  (1) 
2.81

>  <ALOGPS_LOGS>  (1) 
-4.91

>  <ALOGPS_SOLUBILITY>  (1) 
5.23e-03 g/l

>  <DATABASE_ID>  (1) 
DB00764

>  <DATABASE_NAME>  (1) 
drugbank

>  <DRUGBANK_ID>  (1) 
DB00764

>  <DRUG_GROUPS>  (1) 
approved; vet_approved

>  <EXACT_MASS>  (1) 
426.136464798

>  <FORMULA>  (1) 
C22H28Cl2O4

>  <GENERIC_NAME>  (1) 
Mometasone

>  <INCHI_IDENTIFIER>  (1) 
InChI=1S/C22H28Cl2O4/c1-12-8-16-15-5-4-13-9-14(25)6-7-19(13,2)21(15,24)17(26)10-20(16,3)22(12,28)18(27)11-23/h6-7,9,12,15-17,26,28H,4-5,8,10-11H2,1-3H3/t12-,15+,16+,17+,19+,20+,21+,22+/m1/s1

>  <INCHI_KEY>  (1) 
QLIIKPVHVRXHRI-CXSFZGCWSA-N

>  <INTERNATIONAL_BRANDS>  (1) 
Ecural; Elocom; Elomet; Eziwin; mometAid; Novasone

>  <JCHEM_ACCEPTOR_COUNT>  (1) 
4

>  <JCHEM_AVERAGE_POLARIZABILITY>  (1) 
43.81865933952365

>  <JCHEM_BIOAVAILABILITY>  (1) 
1

>  <JCHEM_DONOR_COUNT>  (1) 
2

>  <JCHEM_FORMAL_CHARGE>  (1) 
0

>  <JCHEM_GHOSE_FILTER>  (1) 
1

>  <JCHEM_IUPAC>  (1) 
(1R,2S,10S,11S,13R,14R,15S,17S)-1-chloro-14-(2-chloroacetyl)-14,17-dihydroxy-2,13,15-trimethyltetracyclo[8.7.0.0²,⁷.0¹¹,¹⁵]heptadeca-3,6-dien-5-one

>  <JCHEM_LOGP>  (1) 
3.4996616176666673

>  <JCHEM_MDDR_LIKE_RULE>  (1) 
0

>  <JCHEM_NUMBER_OF_RINGS>  (1) 
4

>  <JCHEM_PHYSIOLOGICAL_CHARGE>  (1) 
0

>  <JCHEM_PKA>  (1) 
13.847593604044008

>  <JCHEM_PKA_STRONGEST_ACIDIC>  (1) 
12.480248238614035

>  <JCHEM_PKA_STRONGEST_BASIC>  (1) 
-3.2978835843925607

>  <JCHEM_POLAR_SURFACE_AREA>  (1) 
74.6

>  <JCHEM_REFRACTIVITY>  (1) 
110.28699999999998

>  <JCHEM_ROTATABLE_BOND_COUNT>  (1) 
2

>  <JCHEM_RULE_OF_FIVE>  (1) 
1

>  <JCHEM_TRADITIONAL_IUPAC>  (1) 
mometasone

>  <JCHEM_VEBER_RULE>  (1) 
0

>  <MOLECULAR_WEIGHT>  (1) 
427.361

>  <PRODUCTS>  (1) 
Apo-mometasone; Asmanex; Asmanex HFA; Asmanex Twisthaler; Dulera; Elocom Cream; Elocom Lotion; Elocom Ointment; Elocon; Mometasone Furoate; Mometasone Furoate Monohydrate; Mosaspray; Nasal Allergy and Congestion Relief; Nasonex; Nasonex Allergy and Congestion; PMS-mometasone; Ratio-mometasone; Sandoz Mometasone; Taro-mometasone Cream; Taro-mometasone Lotion; Taro-mometasone Ointment; Zenhale

>  <SALTS>  (1) 
Mometasone furoate; Mometasone furoate monohydrate

>  <SECONDARY_ACCESSION_NUMBERS>  (1) 
APRD00289

>  <SMILES>  (1) 
[H][C@@]12C[C@@H](C)[C@](O)(C(=O)CCl)[C@@]1(C)C[C@H](O)[C@@]1(Cl)[C@@]2([H])CCC2=CC(=O)C=C[C@]12C

>  <SYNONYMS>  (1) 
(+)-Mometasone; Mometason; Mometasona; Mométasone; Mometasonum

$$$$
