990
     RDKit          2D

 46 49  0  0  1  0  0  0  0  0999 V2000
    7.1359    2.1963    0.0000 O   0  0  0  0  0  0  0  0  0  0  0  0
    1.6499   -1.3573    0.0000 O   0  0  0  0  0  0  0  0  0  0  0  0
    6.0989    0.3358    0.0000 C   0  0  0  0  0  0  0  0  0  0  0  0
    5.3846   -0.0767    0.0000 C   0  0  0  0  0  0  0  0  0  0  0  0
    6.0989    1.1607    0.0000 C   0  0  0  0  0  0  0  0  0  0  0  0
    4.6700    0.3358    0.0000 C   0  0  0  0  0  0  0  0  0  0  0  0
    5.3846    1.5732    0.0000 C   0  0  0  0  0  0  0  0  0  0  0  0
    4.6700    1.1607    0.0000 C   0  0  0  0  0  0  0  0  0  0  0  0
    3.9194   -0.0823    0.0000 C   0  0  0  0  0  0  0  0  0  0  0  0
    6.8795    0.0844    0.0000 C   0  0  0  0  0  0  0  0  0  0  0  0
    5.3978   -0.9359    0.0000 C   0  0  0  0  0  0  0  0  0  0  0  0
    6.8795    1.4121    0.0000 C   0  0  0  0  0  0  0  0  0  0  0  0
    7.3609    0.7483    0.0000 C   0  0  0  0  0  0  0  0  0  0  0  0
    6.0989    1.9857    0.0000 C   0  0  0  0  0  0  0  0  0  0  0  0
    3.9128   -0.9416    0.0000 C   0  0  0  0  0  0  0  0  0  0  0  0
    4.6569   -1.3713    0.0000 C   0  0  0  0  0  0  0  0  0  0  0  0
    3.9257    0.7426    0.0000 C   0  0  0  0  0  0  0  0  0  0  0  0
    3.1548    0.3830    0.0000 C   0  0  0  0  0  0  0  0  0  0  0  0
    3.1411   -1.3951    0.0000 C   0  0  0  0  0  0  0  0  0  0  0  0
    2.3728   -0.0526    0.0000 C   0  0  0  0  0  0  0  0  0  0  0  0
    4.6600   -2.1963    0.0000 C   0  0  0  0  0  0  0  0  0  0  0  0
    2.3659   -0.9476    0.0000 C   0  0  0  0  0  0  0  0  0  0  0  0
    0.0000    0.0000    0.0000 H   0  0  0  0  0  0  0  0  0  0  0  0
    0.0000    0.0000    0.0000 H   0  0  0  0  0  0  0  0  0  0  0  0
    0.0000    0.0000    0.0000 H   0  0  0  0  0  0  0  0  0  0  0  0
    0.0000    0.0000    0.0000 H   0  0  0  0  0  0  0  0  0  0  0  0
    0.0000    0.0000    0.0000 H   0  0  0  0  0  0  0  0  0  0  0  0
    0.0000    0.0000    0.0000 H   0  0  0  0  0  0  0  0  0  0  0  0
    0.0000    0.0000    0.0000 H   0  0  0  0  0  0  0  0  0  0  0  0
    0.0000    0.0000    0.0000 H   0  0  0  0  0  0  0  0  0  0  0  0
    0.0000    0.0000    0.0000 H   0  0  0  0  0  0  0  0  0  0  0  0
    0.0000    0.0000    0.0000 H   0  0  0  0  0  0  0  0  0  0  0  0
    0.0000    0.0000    0.0000 H   0  0  0  0  0  0  0  0  0  0  0  0
    0.0000    0.0000    0.0000 H   0  0  0  0  0  0  0  0  0  0  0  0
    0.0000    0.0000    0.0000 H   0  0  0  0  0  0  0  0  0  0  0  0
    0.0000    0.0000    0.0000 H   0  0  0  0  0  0  0  0  0  0  0  0
    0.0000    0.0000    0.0000 H   0  0  0  0  0  0  0  0  0  0  0  0
    0.0000    0.0000    0.0000 H   0  0  0  0  0  0  0  0  0  0  0  0
    0.0000    0.0000    0.0000 H   0  0  0  0  0  0  0  0  0  0  0  0
    0.0000    0.0000    0.0000 H   0  0  0  0  0  0  0  0  0  0  0  0
    0.0000    0.0000    0.0000 H   0  0  0  0  0  0  0  0  0  0  0  0
    0.0000    0.0000    0.0000 H   0  0  0  0  0  0  0  0  0  0  0  0
    0.0000    0.0000    0.0000 H   0  0  0  0  0  0  0  0  0  0  0  0
    0.0000    0.0000    0.0000 H   0  0  0  0  0  0  0  0  0  0  0  0
    0.0000    0.0000    0.0000 H   0  0  0  0  0  0  0  0  0  0  0  0
    0.0000    0.0000    0.0000 H   0  0  0  0  0  0  0  0  0  0  0  0
  1 12  2  0
  2 22  2  0
  3  4  1  0
  3  5  1  0
  3 10  1  0
  4  6  1  0
  4 11  1  0
  5  7  1  0
  5 12  1  0
  5 14  1  1
  6  8  1  0
  6  9  1  0
  7  8  1  0
  9 15  1  0
  9 17  1  1
  9 18  1  0
 10 13  1  0
 11 16  1  0
 12 13  1  0
 15 16  1  0
 15 19  2  0
 16 21  2  3
 18 20  2  0
 19 22  1  0
 20 22  1  0
  3 23  1  6
  4 24  1  1
  6 25  1  6
  7 26  1  0
  7 27  1  0
  8 28  1  0
  8 29  1  0
 10 30  1  0
 10 31  1  0
 11 32  1  0
 11 33  1  0
 13 34  1  0
 13 35  1  0
 14 36  1  0
 14 37  1  0
 14 38  1  0
 17 39  1  0
 17 40  1  0
 17 41  1  0
 18 42  1  0
 19 43  1  0
 20 44  1  0
 21 45  1  0
 21 46  1  0
M  END
>  <ALOGPS_LOGP>  (1) 
2.67

>  <ALOGPS_LOGS>  (1) 
-4.64

>  <ALOGPS_SOLUBILITY>  (1) 
6.83e-03 g/l

>  <DATABASE_ID>  (1) 
DB00990

>  <DATABASE_NAME>  (1) 
drugbank

>  <DRUGBANK_ID>  (1) 
DB00990

>  <DRUG_GROUPS>  (1) 
approved; investigational

>  <EXACT_MASS>  (1) 
296.177630012

>  <FORMULA>  (1) 
C20H24O2

>  <GENERIC_NAME>  (1) 
Exemestane

>  <INCHI_IDENTIFIER>  (1) 
InChI=1S/C20H24O2/c1-12-10-14-15-4-5-18(22)20(15,3)9-7-16(14)19(2)8-6-13(21)11-17(12)19/h6,8,11,14-16H,1,4-5,7,9-10H2,2-3H3/t14-,15-,16-,19+,20-/m0/s1

>  <INCHI_KEY>  (1) 
BFYIZQONLCFLEV-DAELLWKTSA-N

>  <JCHEM_ACCEPTOR_COUNT>  (1) 
2

>  <JCHEM_AVERAGE_POLARIZABILITY>  (1) 
33.70631178540259

>  <JCHEM_BIOAVAILABILITY>  (1) 
1

>  <JCHEM_DONOR_COUNT>  (1) 
0

>  <JCHEM_FORMAL_CHARGE>  (1) 
0

>  <JCHEM_GHOSE_FILTER>  (1) 
1

>  <JCHEM_IUPAC>  (1) 
(1S,2R,10R,11S,15S)-2,15-dimethyl-8-methylidenetetracyclo[8.7.0.0²,⁷.0¹¹,¹⁵]heptadeca-3,6-diene-5,14-dione

>  <JCHEM_LOGP>  (1) 
3.8661477783333345

>  <JCHEM_MDDR_LIKE_RULE>  (1) 
0

>  <JCHEM_NUMBER_OF_RINGS>  (1) 
4

>  <JCHEM_PHYSIOLOGICAL_CHARGE>  (1) 
0

>  <JCHEM_PKA_STRONGEST_ACIDIC>  (1) 
19.957293570563433

>  <JCHEM_PKA_STRONGEST_BASIC>  (1) 
-5.041593302107081

>  <JCHEM_POLAR_SURFACE_AREA>  (1) 
34.14

>  <JCHEM_REFRACTIVITY>  (1) 
89.02689999999998

>  <JCHEM_ROTATABLE_BOND_COUNT>  (1) 
0

>  <JCHEM_RULE_OF_FIVE>  (1) 
1

>  <JCHEM_TRADITIONAL_IUPAC>  (1) 
exemestane

>  <JCHEM_VEBER_RULE>  (1) 
1

>  <MOLECULAR_WEIGHT>  (1) 
296.4034

>  <PRODUCTS>  (1) 
Act Exemestane; Apo-exemestane; Aromasin; Exemestane; Gd-exemestane; Med-exemestane; Mylan-exemestane; Teva-exemestane

>  <SECONDARY_ACCESSION_NUMBERS>  (1) 
APRD00144

>  <SMILES>  (1) 
[H][C@@]12CCC(=O)[C@@]1(C)CC[C@@]1([H])[C@@]2([H])CC(=C)C2=CC(=O)C=C[C@]12C

>  <SYNONYMS>  (1) 
Exemestano; Exemestanum

$$$$
