987
     RDKit          2D

 30 31  0  0  1  0  0  0  0  0999 V2000
    4.1497   -1.0607    0.0000 O   0  0  0  0  0  0  0  0  0  0  0  0
    2.0301   -0.8057    0.0000 O   0  0  0  0  0  0  0  0  0  0  0  0
    2.5848   -2.5128    0.0000 O   0  0  0  0  0  0  0  0  0  0  0  0
    5.2002   -2.4265    0.0000 O   0  0  0  0  0  0  0  0  0  0  0  0
    2.0533    0.2492    0.0000 O   0  0  0  0  0  0  0  0  0  0  0  0
    3.4822    0.2492    0.0000 N   0  0  0  0  0  0  0  0  0  0  0  0
    2.7678    1.4868    0.0000 N   0  0  0  0  0  0  0  0  0  0  0  0
    3.4822    2.7243    0.0000 N   0  0  0  0  0  0  0  0  0  0  0  0
    2.8148   -1.0607    0.0000 C   0  0  0  0  0  0  0  0  0  0  0  0
    3.0697   -1.8453    0.0000 C   0  0  0  0  0  0  0  0  0  0  0  0
    3.4822   -0.5758    0.0000 C   0  0  0  0  0  0  0  0  0  0  0  0
    3.8947   -1.8453    0.0000 C   0  0  0  0  0  0  0  0  0  0  0  0
    4.3797   -2.5128    0.0000 C   0  0  0  0  0  0  0  0  0  0  0  0
    4.1967    0.6617    0.0000 C   0  0  0  0  0  0  0  0  0  0  0  0
    2.7678    0.6617    0.0000 C   0  0  0  0  0  0  0  0  0  0  0  0
    4.1967    1.4868    0.0000 C   0  0  0  0  0  0  0  0  0  0  0  0
    3.4822    1.8993    0.0000 C   0  0  0  0  0  0  0  0  0  0  0  0
    0.0000    0.0000    0.0000 H   0  0  0  0  0  0  0  0  0  0  0  0
    0.0000    0.0000    0.0000 H   0  0  0  0  0  0  0  0  0  0  0  0
    0.0000    0.0000    0.0000 H   0  0  0  0  0  0  0  0  0  0  0  0
    0.0000    0.0000    0.0000 H   0  0  0  0  0  0  0  0  0  0  0  0
    0.0000    0.0000    0.0000 H   0  0  0  0  0  0  0  0  0  0  0  0
    0.0000    0.0000    0.0000 H   0  0  0  0  0  0  0  0  0  0  0  0
    0.0000    0.0000    0.0000 H   0  0  0  0  0  0  0  0  0  0  0  0
    0.0000    0.0000    0.0000 H   0  0  0  0  0  0  0  0  0  0  0  0
    0.0000    0.0000    0.0000 H   0  0  0  0  0  0  0  0  0  0  0  0
    0.0000    0.0000    0.0000 H   0  0  0  0  0  0  0  0  0  0  0  0
    0.0000    0.0000    0.0000 H   0  0  0  0  0  0  0  0  0  0  0  0
    0.0000    0.0000    0.0000 H   0  0  0  0  0  0  0  0  0  0  0  0
    0.0000    0.0000    0.0000 H   0  0  0  0  0  0  0  0  0  0  0  0
  1 11  1  0
  1 12  1  0
  9  2  1  6
 10  3  1  1
  4 13  1  0
  5 15  2  0
 11  6  1  6
  6 14  1  0
  6 15  1  0
  7 15  1  0
  7 17  2  0
  8 17  1  0
  9 10  1  0
  9 11  1  0
 10 12  1  0
 12 13  1  1
 14 16  2  0
 16 17  1  0
  2 18  1  0
  3 19  1  0
  4 20  1  0
  8 21  1  0
  8 22  1  0
  9 23  1  0
 10 24  1  0
 11 25  1  0
 12 26  1  0
 13 27  1  0
 13 28  1  0
 14 29  1  0
 16 30  1  0
M  END
>  <ALOGPS_LOGP>  (1) 
-2.18

>  <ALOGPS_LOGS>  (1) 
-0.74

>  <ALOGPS_SOLUBILITY>  (1) 
4.38e+01 g/l

>  <DATABASE_ID>  (1) 
DB00987

>  <DATABASE_NAME>  (1) 
drugbank

>  <DRUGBANK_ID>  (1) 
DB00987

>  <DRUG_GROUPS>  (1) 
approved; investigational

>  <EXACT_MASS>  (1) 
243.085520541

>  <FORMULA>  (1) 
C9H13N3O5

>  <GENERIC_NAME>  (1) 
Cytarabine

>  <INCHI_IDENTIFIER>  (1) 
InChI=1S/C9H13N3O5/c10-5-1-2-12(9(16)11-5)8-7(15)6(14)4(3-13)17-8/h1-2,4,6-8,13-15H,3H2,(H2,10,11,16)/t4-,6-,7+,8-/m1/s1

>  <INCHI_KEY>  (1) 
UHDGCWIWMRVCDJ-CCXZUQQUSA-N

>  <INTERNATIONAL_BRANDS>  (1) 
Ara-C; Cytosar-U

>  <JCHEM_ACCEPTOR_COUNT>  (1) 
7

>  <JCHEM_AVERAGE_POLARIZABILITY>  (1) 
22.207755753933647

>  <JCHEM_BIOAVAILABILITY>  (1) 
1

>  <JCHEM_DONOR_COUNT>  (1) 
4

>  <JCHEM_FORMAL_CHARGE>  (1) 
0

>  <JCHEM_GHOSE_FILTER>  (1) 
0

>  <JCHEM_IUPAC>  (1) 
4-amino-1-[(2R,3S,4S,5R)-3,4-dihydroxy-5-(hydroxymethyl)oxolan-2-yl]-1,2-dihydropyrimidin-2-one

>  <JCHEM_LOGP>  (1) 
-2.7975172843333334

>  <JCHEM_MDDR_LIKE_RULE>  (1) 
0

>  <JCHEM_NUMBER_OF_RINGS>  (1) 
2

>  <JCHEM_PHYSIOLOGICAL_CHARGE>  (1) 
0

>  <JCHEM_PKA>  (1) 
13.933690929173128

>  <JCHEM_PKA_STRONGEST_ACIDIC>  (1) 
12.553240935454827

>  <JCHEM_PKA_STRONGEST_BASIC>  (1) 
-0.5510800449087655

>  <JCHEM_POLAR_SURFACE_AREA>  (1) 
128.61

>  <JCHEM_REFRACTIVITY>  (1) 
54.5448

>  <JCHEM_ROTATABLE_BOND_COUNT>  (1) 
2

>  <JCHEM_RULE_OF_FIVE>  (1) 
1

>  <JCHEM_TRADITIONAL_IUPAC>  (1) 
cytarabine

>  <JCHEM_VEBER_RULE>  (1) 
0

>  <MOLECULAR_WEIGHT>  (1) 
243.2166

>  <PRODUCTS>  (1) 
Aj-cytarabine; Cytarabine; Cytarabine - Pws 1gn/vial; Cytarabine - Pws 2gm/vial; Cytarabine - Pws 500mg/vial; Cytarabine Inj 100mg/ml; Cytarabine Injection; Cytarabine Injection BP; Cytarabine Injection, Mylan Std.; Cytarabine-pws 100mg/vial; Cytosar; DepoCyt; Depocyte; PMS-cytarabine; Vyxeos

>  <SALTS>  (1) 
Cytarabine hydrochloride

>  <SECONDARY_ACCESSION_NUMBERS>  (1) 
APRD00499

>  <SMILES>  (1) 
NC1=NC(=O)N(C=C1)[C@@H]1O[C@H](CO)[C@@H](O)[C@@H]1O

>  <SYNONYMS>  (1) 
1-beta-D-Arabinofuranosylcytosine; 4-Amino-1-beta-D-arabinofuranosyl-2(1H)-pyrimidinone; Citarabina; Cytarabinum; Cytosine arabinoside; Cytosine-1-beta-D-arabinofuranoside; cytosine-Î²-D-arabinofuranoside

$$$$
