544
     RDKit          2D

 12 12  0  0  0  0  0  0  0  0999 V2000
    4.5080    1.0808    0.0000 F   0  0  0  0  0  0  0  0  0  0  0  0
    4.5080   -0.5693    0.0000 O   0  0  0  0  0  0  0  0  0  0  0  0
    1.6500   -0.5693    0.0000 O   0  0  0  0  0  0  0  0  0  0  0  0
    3.0791   -0.5693    0.0000 N   0  0  0  0  0  0  0  0  0  0  0  0
    2.3645    0.6683    0.0000 N   0  0  0  0  0  0  0  0  0  0  0  0
    3.7935   -0.1568    0.0000 C   0  0  0  0  0  0  0  0  0  0  0  0
    2.3645   -0.1568    0.0000 C   0  0  0  0  0  0  0  0  0  0  0  0
    3.7935    0.6683    0.0000 C   0  0  0  0  0  0  0  0  0  0  0  0
    3.0791    1.0808    0.0000 C   0  0  0  0  0  0  0  0  0  0  0  0
    0.0000    0.0000    0.0000 H   0  0  0  0  0  0  0  0  0  0  0  0
    0.0000    0.0000    0.0000 H   0  0  0  0  0  0  0  0  0  0  0  0
    0.0000    0.0000    0.0000 H   0  0  0  0  0  0  0  0  0  0  0  0
  1  8  1  0
  2  6  2  0
  3  7  2  0
  4  6  1  0
  4  7  1  0
  5  7  1  0
  5  9  1  0
  6  8  1  0
  8  9  2  0
  4 10  1  0
  5 11  1  0
  9 12  1  0
M  END
>  <ALOGPS_LOGP>  (1) 
-0.58

>  <ALOGPS_LOGS>  (1) 
-1.35

>  <ALOGPS_SOLUBILITY>  (1) 
5.86e+00 g/l

>  <DATABASE_ID>  (1) 
DB00544

>  <DATABASE_NAME>  (1) 
drugbank

>  <DRUGBANK_ID>  (1) 
DB00544

>  <DRUG_GROUPS>  (1) 
approved

>  <EXACT_MASS>  (1) 
130.017855555

>  <FORMULA>  (1) 
C4H3FN2O2

>  <GENERIC_NAME>  (1) 
Fluorouracil

>  <INCHI_IDENTIFIER>  (1) 
InChI=1S/C4H3FN2O2/c5-2-1-6-4(9)7-3(2)8/h1H,(H2,6,7,8,9)

>  <INCHI_KEY>  (1) 
GHASVSINZRGABV-UHFFFAOYSA-N

>  <INTERNATIONAL_BRANDS>  (1) 
Carzonal; Efudix; Efurix; Ftoruracil

>  <JCHEM_ACCEPTOR_COUNT>  (1) 
2

>  <JCHEM_AVERAGE_POLARIZABILITY>  (1) 
9.459437340468295

>  <JCHEM_BIOAVAILABILITY>  (1) 
1

>  <JCHEM_DONOR_COUNT>  (1) 
2

>  <JCHEM_FORMAL_CHARGE>  (1) 
0

>  <JCHEM_GHOSE_FILTER>  (1) 
0

>  <JCHEM_IUPAC>  (1) 
5-fluoro-1,2,3,4-tetrahydropyrimidine-2,4-dione

>  <JCHEM_LOGP>  (1) 
-0.6558480899999999

>  <JCHEM_MDDR_LIKE_RULE>  (1) 
0

>  <JCHEM_NUMBER_OF_RINGS>  (1) 
1

>  <JCHEM_PHYSIOLOGICAL_CHARGE>  (1) 
0

>  <JCHEM_PKA>  (1) 
12.023248133002948

>  <JCHEM_PKA_STRONGEST_ACIDIC>  (1) 
7.762457313361896

>  <JCHEM_PKA_STRONGEST_BASIC>  (1) 
-7.97367679819375

>  <JCHEM_POLAR_SURFACE_AREA>  (1) 
58.2

>  <JCHEM_REFRACTIVITY>  (1) 
26.1722

>  <JCHEM_ROTATABLE_BOND_COUNT>  (1) 
0

>  <JCHEM_RULE_OF_FIVE>  (1) 
1

>  <JCHEM_TRADITIONAL_IUPAC>  (1) 
fluorouracil

>  <JCHEM_VEBER_RULE>  (1) 
0

>  <MOLECULAR_WEIGHT>  (1) 
130.0772

>  <PRODUCTS>  (1) 
Actikerall; Adrucil; Adrucil Inj 50mg/ml; Carac; Efudex; Efudex Crm 5%; Fluoroplex; Fluoroplex Cream 1%; Fluorouracil; Fluorouracil Inj 50mg/ml; Fluorouracil Injection; Fluorouracil Injection USP; Tolak

>  <SECONDARY_ACCESSION_NUMBERS>  (1) 
APRD00516; EXPT03204

>  <SMILES>  (1) 
FC1=CNC(=O)NC1=O

>  <SYNONYMS>  (1) 
5-Fluorouracil; 5-Fluracil; 5-FU; Fluoro Uracil; Fluouracil; FU

$$$$
