594
     RDKit          2D

 23 23  0  0  0  0  0  0  0  0999 V2000
    6.3799   -0.0784    0.0000 Cl  0  0  0  0  0  0  0  0  0  0  0  0
    2.8075   -0.4909    0.0000 O   0  0  0  0  0  0  0  0  0  0  0  0
    4.9509   -1.7284    0.0000 N   0  0  0  0  0  0  0  0  0  0  0  0
    4.9509   -0.0784    0.0000 N   0  0  0  0  0  0  0  0  0  0  0  0
    3.5220   -1.7284    0.0000 N   0  0  0  0  0  0  0  0  0  0  0  0
    3.5220    0.7466    0.0000 N   0  0  0  0  0  0  0  0  0  0  0  0
    6.3799   -1.7284    0.0000 N   0  0  0  0  0  0  0  0  0  0  0  0
    2.8075    1.9842    0.0000 N   0  0  0  0  0  0  0  0  0  0  0  0
    2.0930    0.7466    0.0000 N   0  0  0  0  0  0  0  0  0  0  0  0
    4.2365   -0.4909    0.0000 C   0  0  0  0  0  0  0  0  0  0  0  0
    4.2365   -1.3159    0.0000 C   0  0  0  0  0  0  0  0  0  0  0  0
    5.6655   -1.3159    0.0000 C   0  0  0  0  0  0  0  0  0  0  0  0
    5.6655   -0.4909    0.0000 C   0  0  0  0  0  0  0  0  0  0  0  0
    3.5220   -0.0784    0.0000 C   0  0  0  0  0  0  0  0  0  0  0  0
    2.8075    1.1592    0.0000 C   0  0  0  0  0  0  0  0  0  0  0  0
    0.0000    0.0000    0.0000 H   0  0  0  0  0  0  0  0  0  0  0  0
    0.0000    0.0000    0.0000 H   0  0  0  0  0  0  0  0  0  0  0  0
    0.0000    0.0000    0.0000 H   0  0  0  0  0  0  0  0  0  0  0  0
    0.0000    0.0000    0.0000 H   0  0  0  0  0  0  0  0  0  0  0  0
    0.0000    0.0000    0.0000 H   0  0  0  0  0  0  0  0  0  0  0  0
    0.0000    0.0000    0.0000 H   0  0  0  0  0  0  0  0  0  0  0  0
    0.0000    0.0000    0.0000 H   0  0  0  0  0  0  0  0  0  0  0  0
    0.0000    0.0000    0.0000 H   0  0  0  0  0  0  0  0  0  0  0  0
  1 13  1  0
  2 14  2  0
  3 11  2  0
  3 12  1  0
  4 10  2  0
  4 13  1  0
  5 11  1  0
  6 14  1  0
  6 15  2  3
  7 12  1  0
  8 15  1  0
  9 15  1  0
 10 11  1  0
 10 14  1  0
 12 13  2  0
  5 16  1  0
  5 17  1  0
  7 18  1  0
  7 19  1  0
  8 20  1  0
  8 21  1  0
  9 22  1  0
  9 23  1  0
M  END
>  <ALOGPS_LOGP>  (1) 
-0.72

>  <ALOGPS_LOGS>  (1) 
-2.27

>  <ALOGPS_SOLUBILITY>  (1) 
1.22e+00 g/l

>  <DATABASE_ID>  (1) 
DB00594

>  <DATABASE_NAME>  (1) 
drugbank

>  <DRUGBANK_ID>  (1) 
DB00594

>  <DRUG_GROUPS>  (1) 
approved

>  <EXACT_MASS>  (1) 
229.04788562

>  <FORMULA>  (1) 
C6H8ClN7O

>  <GENERIC_NAME>  (1) 
Amiloride

>  <INCHI_IDENTIFIER>  (1) 
InChI=1S/C6H8ClN7O/c7-2-4(9)13-3(8)1(12-2)5(15)14-6(10)11/h(H4,8,9,13)(H4,10,11,14,15)

>  <INCHI_KEY>  (1) 
XSDQTOBWRPYKKA-UHFFFAOYSA-N

>  <INTERNATIONAL_BRANDS>  (1) 
Arumil; Kaluril; Modamide; Moduretic

>  <JCHEM_ACCEPTOR_COUNT>  (1) 
8

>  <JCHEM_AVERAGE_POLARIZABILITY>  (1) 
19.99291748770876

>  <JCHEM_BIOAVAILABILITY>  (1) 
1

>  <JCHEM_DONOR_COUNT>  (1) 
4

>  <JCHEM_FORMAL_CHARGE>  (1) 
0

>  <JCHEM_GHOSE_FILTER>  (1) 
0

>  <JCHEM_IUPAC>  (1) 
3,5-diamino-6-chloro-N-(diaminomethylidene)pyrazine-2-carboxamide

>  <JCHEM_LOGP>  (1) 
-0.8903691166666666

>  <JCHEM_MDDR_LIKE_RULE>  (1) 
0

>  <JCHEM_NUMBER_OF_RINGS>  (1) 
1

>  <JCHEM_PHYSIOLOGICAL_CHARGE>  (1) 
0

>  <JCHEM_PKA>  (1) 
17.691859100323214

>  <JCHEM_PKA_STRONGEST_ACIDIC>  (1) 
16.458863179588512

>  <JCHEM_PKA_STRONGEST_BASIC>  (1) 
3.2857540348413337

>  <JCHEM_POLAR_SURFACE_AREA>  (1) 
159.29000000000002

>  <JCHEM_REFRACTIVITY>  (1) 
56.688399999999994

>  <JCHEM_ROTATABLE_BOND_COUNT>  (1) 
1

>  <JCHEM_RULE_OF_FIVE>  (1) 
1

>  <JCHEM_TRADITIONAL_IUPAC>  (1) 
amiloride

>  <JCHEM_VEBER_RULE>  (1) 
0

>  <MOLECULAR_WEIGHT>  (1) 
229.627

>  <PRODUCTS>  (1) 
Alti-amiloride Hctz; Ami-hydro Tab; Amiloride Hydrochloride; Amiloride Hydrochloride Tablets, USP; Amiloride Hydrochloride and Hydrochlorothiazide; Amiloride Hydrocloride; Apo-amilzide Tab; Midamor; Midamor Tablets 5mg; Moduret; Mylan-amilazide; Novamilor; Nu-amilzide 5/50 Mg Tab; Penta-amiloride Hctz Tablets; Riva-amilzide 5/50 mg

>  <SALTS>  (1) 
Amiloride hydrochloride; Amiloride hydrochloride dihydrate

>  <SECONDARY_ACCESSION_NUMBERS>  (1) 
APRD00790; EXPT00514

>  <SMILES>  (1) 
NC(N)=NC(=O)C1=C(N)N=C(N)C(Cl)=N1

>  <SYNONYMS>  (1) 
Amilorid; Amilorida; Amiloridum; Amipramidin; Amipramidine; Amyloride; N-amidino-3,5-diamino-6-chloropyrazinecarboxamide

$$$$
