
     RDKit          2D

 21 22  0  0  0  0  0  0  0  0999 V2000
    0.7145   -0.4125    0.0000 N   0  0  0  0  0  0  0  0  0  0  0  0
    0.7145   -1.2375    0.0000 C   0  0  0  0  0  0  0  0  0  0  0  0
    1.1270   -1.9520    0.0000 C   0  0  0  0  0  0  0  0  0  0  0  0
    0.3020   -1.9520    0.0000 C   0  0  0  0  0  0  0  0  0  0  0  0
   -0.4125   -2.3645    0.0000 C   0  0  0  0  0  0  0  0  0  0  0  0
   -0.4125   -3.1895    0.0000 C   0  0  0  0  0  0  0  0  0  0  0  0
   -1.1270   -3.6020    0.0000 C   0  0  0  0  0  0  0  0  0  0  0  0
   -1.8414   -3.1895    0.0000 C   0  0  0  0  0  0  0  0  0  0  0  0
   -1.8414   -2.3645    0.0000 C   0  0  0  0  0  0  0  0  0  0  0  0
   -1.1270   -1.9520    0.0000 C   0  0  0  0  0  0  0  0  0  0  0  0
    0.0000    0.0000    0.0000 H   0  0  0  0  0  0  0  0  0  0  0  0
    0.0000    0.0000    0.0000 H   0  0  0  0  0  0  0  0  0  0  0  0
    0.0000    0.0000    0.0000 H   0  0  0  0  0  0  0  0  0  0  0  0
    0.0000    0.0000    0.0000 H   0  0  0  0  0  0  0  0  0  0  0  0
    0.0000    0.0000    0.0000 H   0  0  0  0  0  0  0  0  0  0  0  0
    0.0000    0.0000    0.0000 H   0  0  0  0  0  0  0  0  0  0  0  0
    0.0000    0.0000    0.0000 H   0  0  0  0  0  0  0  0  0  0  0  0
    0.0000    0.0000    0.0000 H   0  0  0  0  0  0  0  0  0  0  0  0
    0.0000    0.0000    0.0000 H   0  0  0  0  0  0  0  0  0  0  0  0
    0.0000    0.0000    0.0000 H   0  0  0  0  0  0  0  0  0  0  0  0
    0.0000    0.0000    0.0000 H   0  0  0  0  0  0  0  0  0  0  0  0
  1  2  1  0
  2  3  1  0
  3  4  1  0
  2  4  1  0
  4  5  1  0
  5  6  2  0
  6  7  1  0
  7  8  2  0
  8  9  1  0
  9 10  2  0
  5 10  1  0
  1 11  1  0
  1 12  1  0
  2 13  1  0
  3 14  1  0
  3 15  1  0
  4 16  1  0
  6 17  1  0
  7 18  1  0
  8 19  1  0
  9 20  1  0
 10 21  1  0
M  END
>  <ALOGPS_LOGP>  (1) 
1.50

>  <ALOGPS_LOGS>  (1) 
-1.95

>  <ALOGPS_SOLUBILITY>  (1) 
1.49e+00 g/l

>  <DATABASE_ID>  (1) 
DB00752

>  <DATABASE_NAME>  (1) 
drugbank

>  <DRUGBANK_ID>  (1) 
DB00752

>  <DRUG_GROUPS>  (1) 
approved

>  <EXACT_MASS>  (1) 
133.089149358

>  <FORMULA>  (1) 
C9H11N

>  <GENERIC_NAME>  (1) 
Tranylcypromine

>  <INCHI_IDENTIFIER>  (1) 
InChI=1S/C9H11N/c10-9-6-8(9)7-4-2-1-3-5-7/h1-5,8-9H,6,10H2

>  <INCHI_KEY>  (1) 
AELCINSCMGFISI-UHFFFAOYSA-N

>  <INTERNATIONAL_BRANDS>  (1) 
Jatrosom

>  <JCHEM_ACCEPTOR_COUNT>  (1) 
1

>  <JCHEM_ATOM_COUNT>  (1) 
21

>  <JCHEM_AVERAGE_POLARIZABILITY>  (1) 
15.512282543926744

>  <JCHEM_BIOAVAILABILITY>  (1) 
1

>  <JCHEM_DONOR_COUNT>  (1) 
1

>  <JCHEM_FORMAL_CHARGE>  (1) 
0

>  <JCHEM_GHOSE_FILTER>  (1) 
0

>  <JCHEM_IUPAC>  (1) 
2-phenylcyclopropan-1-amine

>  <JCHEM_LOGP>  (1) 
1.338882470333333

>  <JCHEM_MDDR_LIKE_RULE>  (1) 
0

>  <JCHEM_NUMBER_OF_RINGS>  (1) 
2

>  <JCHEM_PHYSIOLOGICAL_CHARGE>  (1) 
1

>  <JCHEM_PKA_STRONGEST_BASIC>  (1) 
9.622454981560159

>  <JCHEM_POLAR_SURFACE_AREA>  (1) 
26.02

>  <JCHEM_REFRACTIVITY>  (1) 
41.696600000000004

>  <JCHEM_ROTATABLE_BOND_COUNT>  (1) 
1

>  <JCHEM_RULE_OF_FIVE>  (1) 
1

>  <JCHEM_TRADITIONAL_IUPAC>  (1) 
parnate

>  <JCHEM_VEBER_RULE>  (1) 
1

>  <MOLECULAR_WEIGHT>  (1) 
133.194

>  <PRODUCTS>  (1) 
Parnate; Tranylcypromine Sulfate

>  <SALTS>  (1) 
Tranylcypromine sulfate

>  <SECONDARY_ACCESSION_NUMBERS>  (1) 
APRD00645

>  <SMILES>  (1) 
NC1CC1C1=CC=CC=C1

>  <SYNONYMS>  (1) 
(Â±)-trans-2-phenylcyclopropylamine; (1R*,2S*)-2-phenylcyclopropan-1-amine; DL-tranylcypromine; Racemic Tranylcypromine; Tranilcipromina; trans-2-phenylcyclopropylamine; trans-DL-2-Phenylcyclopropylamine; Transamine; Tranylcypromin; Tranylcypromine; Tranylcyprominum

$$$$
