959
     RDKit          2D

 57 60  0  0  1  0  0  0  0  0999 V2000
    6.6263    1.9371    0.0000 O   0  0  0  0  0  0  0  0  0  0  0  0
    3.9559    1.3132    0.0000 O   0  0  0  0  0  0  0  0  0  0  0  0
    7.4634    2.4564    0.0000 O   0  0  0  0  0  0  0  0  0  0  0  0
    8.9696    1.7827    0.0000 O   0  0  0  0  0  0  0  0  0  0  0  0
    1.6500   -1.6175    0.0000 O   0  0  0  0  0  0  0  0  0  0  0  0
    6.0993    0.9007    0.0000 C   0  0  0  0  0  0  0  0  0  0  0  0
    6.0993    0.0757    0.0000 C   0  0  0  0  0  0  0  0  0  0  0  0
    5.3849   -0.3368    0.0000 C   0  0  0  0  0  0  0  0  0  0  0  0
    4.6703    0.0757    0.0000 C   0  0  0  0  0  0  0  0  0  0  0  0
    6.8799    1.1521    0.0000 C   0  0  0  0  0  0  0  0  0  0  0  0
    5.3849    1.3132    0.0000 C   0  0  0  0  0  0  0  0  0  0  0  0
    4.6703    0.9007    0.0000 C   0  0  0  0  0  0  0  0  0  0  0  0
    6.8799   -0.1757    0.0000 C   0  0  0  0  0  0  0  0  0  0  0  0
    3.9196   -0.3425    0.0000 C   0  0  0  0  0  0  0  0  0  0  0  0
    7.3614    0.4882    0.0000 C   0  0  0  0  0  0  0  0  0  0  0  0
    5.3981   -1.1961    0.0000 C   0  0  0  0  0  0  0  0  0  0  0  0
    4.6572   -1.6314    0.0000 C   0  0  0  0  0  0  0  0  0  0  0  0
    6.0993    1.7257    0.0000 C   0  0  0  0  0  0  0  0  0  0  0  0
    3.9130   -1.2018    0.0000 C   0  0  0  0  0  0  0  0  0  0  0  0
    7.5482    1.6358    0.0000 C   0  0  0  0  0  0  0  0  0  0  0  0
    3.9259    0.4825    0.0000 C   0  0  0  0  0  0  0  0  0  0  0  0
    3.1550    0.1229    0.0000 C   0  0  0  0  0  0  0  0  0  0  0  0
    4.6603   -2.4564    0.0000 C   0  0  0  0  0  0  0  0  0  0  0  0
    3.1413   -1.6554    0.0000 C   0  0  0  0  0  0  0  0  0  0  0  0
    8.3013    1.2990    0.0000 C   0  0  0  0  0  0  0  0  0  0  0  0
    2.3729   -0.3127    0.0000 C   0  0  0  0  0  0  0  0  0  0  0  0
    2.3660   -1.2078    0.0000 C   0  0  0  0  0  0  0  0  0  0  0  0
    0.0000    0.0000    0.0000 H   0  0  0  0  0  0  0  0  0  0  0  0
    0.0000    0.0000    0.0000 H   0  0  0  0  0  0  0  0  0  0  0  0
    0.0000    0.0000    0.0000 H   0  0  0  0  0  0  0  0  0  0  0  0
    0.0000    0.0000    0.0000 H   0  0  0  0  0  0  0  0  0  0  0  0
    0.0000    0.0000    0.0000 H   0  0  0  0  0  0  0  0  0  0  0  0
    0.0000    0.0000    0.0000 H   0  0  0  0  0  0  0  0  0  0  0  0
    0.0000    0.0000    0.0000 H   0  0  0  0  0  0  0  0  0  0  0  0
    0.0000    0.0000    0.0000 H   0  0  0  0  0  0  0  0  0  0  0  0
    0.0000    0.0000    0.0000 H   0  0  0  0  0  0  0  0  0  0  0  0
    0.0000    0.0000    0.0000 H   0  0  0  0  0  0  0  0  0  0  0  0
    0.0000    0.0000    0.0000 H   0  0  0  0  0  0  0  0  0  0  0  0
    0.0000    0.0000    0.0000 H   0  0  0  0  0  0  0  0  0  0  0  0
    0.0000    0.0000    0.0000 H   0  0  0  0  0  0  0  0  0  0  0  0
    0.0000    0.0000    0.0000 H   0  0  0  0  0  0  0  0  0  0  0  0
    0.0000    0.0000    0.0000 H   0  0  0  0  0  0  0  0  0  0  0  0
    0.0000    0.0000    0.0000 H   0  0  0  0  0  0  0  0  0  0  0  0
    0.0000    0.0000    0.0000 H   0  0  0  0  0  0  0  0  0  0  0  0
    0.0000    0.0000    0.0000 H   0  0  0  0  0  0  0  0  0  0  0  0
    0.0000    0.0000    0.0000 H   0  0  0  0  0  0  0  0  0  0  0  0
    0.0000    0.0000    0.0000 H   0  0  0  0  0  0  0  0  0  0  0  0
    0.0000    0.0000    0.0000 H   0  0  0  0  0  0  0  0  0  0  0  0
    0.0000    0.0000    0.0000 H   0  0  0  0  0  0  0  0  0  0  0  0
    0.0000    0.0000    0.0000 H   0  0  0  0  0  0  0  0  0  0  0  0
    0.0000    0.0000    0.0000 H   0  0  0  0  0  0  0  0  0  0  0  0
    0.0000    0.0000    0.0000 H   0  0  0  0  0  0  0  0  0  0  0  0
    0.0000    0.0000    0.0000 H   0  0  0  0  0  0  0  0  0  0  0  0
    0.0000    0.0000    0.0000 H   0  0  0  0  0  0  0  0  0  0  0  0
    0.0000    0.0000    0.0000 H   0  0  0  0  0  0  0  0  0  0  0  0
    0.0000    0.0000    0.0000 H   0  0  0  0  0  0  0  0  0  0  0  0
    0.0000    0.0000    0.0000 H   0  0  0  0  0  0  0  0  0  0  0  0
 10  1  1  6
 12  2  1  1
  3 20  2  0
  4 25  1  0
  5 27  2  0
  6  7  1  0
  6 10  1  0
  6 11  1  0
  6 18  1  1
  7  8  1  0
  7 13  1  0
  8  9  1  0
  8 16  1  0
  9 12  1  0
  9 14  1  0
 10 15  1  0
 10 20  1  0
 11 12  1  0
 13 15  1  0
 14 19  1  0
 14 21  1  1
 14 22  1  0
 16 17  1  0
 17 19  1  0
 17 23  1  6
 19 24  2  0
 20 25  1  0
 22 26  2  0
 24 27  1  0
 26 27  1  0
  1 28  1  0
  2 29  1  0
  4 30  1  0
  7 31  1  6
  8 32  1  1
  9 33  1  6
 11 34  1  0
 11 35  1  0
 12 36  1  0
 13 37  1  0
 13 38  1  0
 15 39  1  0
 15 40  1  0
 16 41  1  0
 16 42  1  0
 17 43  1  0
 18 44  1  0
 18 45  1  0
 18 46  1  0
 21 47  1  0
 21 48  1  0
 21 49  1  0
 22 50  1  0
 23 51  1  0
 23 52  1  0
 23 53  1  0
 24 54  1  0
 25 55  1  0
 25 56  1  0
 26 57  1  0
M  END
>  <ALOGPS_LOGP>  (1) 
2.06

>  <ALOGPS_LOGS>  (1) 
-3.54

>  <ALOGPS_SOLUBILITY>  (1) 
1.09e-01 g/l

>  <DATABASE_ID>  (1) 
DB00959

>  <DATABASE_NAME>  (1) 
drugbank

>  <DRUGBANK_ID>  (1) 
DB00959

>  <DRUG_GROUPS>  (1) 
approved; vet_approved

>  <EXACT_MASS>  (1) 
374.20932407

>  <FORMULA>  (1) 
C22H30O5

>  <GENERIC_NAME>  (1) 
Methylprednisolone

>  <INCHI_IDENTIFIER>  (1) 
InChI=1S/C22H30O5/c1-12-8-14-15-5-7-22(27,18(26)11-23)21(15,3)10-17(25)19(14)20(2)6-4-13(24)9-16(12)20/h4,6,9,12,14-15,17,19,23,25,27H,5,7-8,10-11H2,1-3H3/t12-,14-,15-,17-,19+,20-,21-,22-/m0/s1

>  <INCHI_KEY>  (1) 
VHRSUDSXCMQTMA-PJHHCJLFSA-N

>  <INTERNATIONAL_BRANDS>  (1) 
Medrate; Medrone; Meprolone; Solomet; Urbason

>  <JCHEM_ACCEPTOR_COUNT>  (1) 
5

>  <JCHEM_AVERAGE_POLARIZABILITY>  (1) 
40.840025421626194

>  <JCHEM_BIOAVAILABILITY>  (1) 
1

>  <JCHEM_DONOR_COUNT>  (1) 
3

>  <JCHEM_FORMAL_CHARGE>  (1) 
0

>  <JCHEM_GHOSE_FILTER>  (1) 
1

>  <JCHEM_IUPAC>  (1) 
(1S,2R,8S,10S,11S,14R,15S,17S)-14,17-dihydroxy-14-(2-hydroxyacetyl)-2,8,15-trimethyltetracyclo[8.7.0.0²,⁷.0¹¹,¹⁵]heptadeca-3,6-dien-5-one

>  <JCHEM_LOGP>  (1) 
1.5600090206666664

>  <JCHEM_MDDR_LIKE_RULE>  (1) 
0

>  <JCHEM_NUMBER_OF_RINGS>  (1) 
4

>  <JCHEM_PHYSIOLOGICAL_CHARGE>  (1) 
0

>  <JCHEM_PKA>  (1) 
13.864333590415907

>  <JCHEM_PKA_STRONGEST_ACIDIC>  (1) 
12.584675034147896

>  <JCHEM_PKA_STRONGEST_BASIC>  (1) 
-2.8513561321432883

>  <JCHEM_POLAR_SURFACE_AREA>  (1) 
94.83000000000001

>  <JCHEM_REFRACTIVITY>  (1) 
103.04189999999998

>  <JCHEM_ROTATABLE_BOND_COUNT>  (1) 
2

>  <JCHEM_RULE_OF_FIVE>  (1) 
1

>  <JCHEM_TRADITIONAL_IUPAC>  (1) 
methylprednisolone

>  <JCHEM_VEBER_RULE>  (1) 
0

>  <MOLECULAR_WEIGHT>  (1) 
374.4706

>  <PRODUCTS>  (1) 
A-methapred; Depo-Medrol; Depo-medrol (with Preservative) 20 mg/ml; Depo-medrol (with Preservative) 40 mg/ml; Depo-medrol (with Preservative) 80 mg/ml; Depo-medrol 40 mg/ml; Depo-medrol 80 mg/ml; Depo-medrol With Lidocaine; Hybrisil; Medrol; Medrol 16 mg; Medrol 4 mg; Medrol Acne Lotion; Medrol Topical 0.25%; Medroloan II SUIK; Medroloan SUIK; MethylPREDNISolone; MethylpredniSOLONE; Methylprednisolone; Methylprednisolone Acetate; Methylprednisolone Acetate Injectable Suspension USP; Methylprednisolone Acetate Injectable Suspension USP -(40mg/ml With Preservative); Methylprednisolone Acetate Injectable Suspension USP -(80mg/ml With Preservative); Methylprednisolone Sodium Succinate; Methylprednisolone Sodium Succinate for Injection; Methylprednisolone Sodium Succinate for Injection, USP; Neo-medrol; Neo-medrol Acne Lotion; Physicians EZ Use M-pred; ReadySharp Anesthetics plus MethylPrednisolone 80; ReadySharp MethylPrednisolone 80; ReadySharp-P40; ReadySharp-P80; Solu-Medrol; Solu-medrol; Solumedrol Inj 125mg Sterile Mixovial; Solumedrol Inj 40mg Sterile Mixovial

>  <SALTS>  (1) 
Methylprednisolone aceponate; Methylprednisolone acetate; Methylprednisolone sodium succinate

>  <SECONDARY_ACCESSION_NUMBERS>  (1) 
APRD00342

>  <SMILES>  (1) 
[H][C@@]12CC[C@](O)(C(=O)CO)[C@@]1(C)C[C@H](O)[C@@]1([H])[C@@]2([H])C[C@H](C)C2=CC(=O)C=C[C@]12C

>  <SYNONYMS>  (1) 
(6α,11β)-11,17,21-trihydroxy-6-methylpregna-1,4-diene-3,20-dione; 1-dehydro-6α-methylhydrocortisone; Methylprednisolon; Methylprednisolonum; Metilprednisolona

$$$$
