
     RDKit          2D

 51 53  0  0  1  0  0  0  0  0999 V2000
    1.7733    0.2488    0.0000 C   0  0  0  0  0  0  0  0  0  0  0  0
    2.5579    0.5038    0.0000 C   0  0  0  0  0  0  0  0  0  0  0  0
    2.8129    1.2884    0.0000 C   0  0  0  0  0  0  0  0  0  0  0  0
    3.0428   -0.1637    0.0000 C   0  0  0  0  0  0  0  0  0  0  0  0
    3.8678   -0.1637    0.0000 S   0  0  0  0  0  0  0  0  0  0  0  0
    4.2803    0.5508    0.0000 C   0  0  0  0  0  0  0  0  0  0  0  0
    5.1008    0.6370    0.0000 C   0  0  0  0  0  0  0  0  0  0  0  0
    5.2724    1.4440    0.0000 N   0  0  0  0  0  0  0  0  0  0  0  0
    4.5579    1.8565    0.0000 C   0  0  0  0  0  0  0  0  0  0  0  0
    3.9448    1.3045    0.0000 C   0  0  0  0  0  0  0  0  0  0  0  0
    4.4716    2.6770    0.0000 C   0  0  0  0  0  0  0  0  0  0  0  0
    3.7180    3.0125    0.0000 O   0  0  0  0  0  0  0  0  0  0  0  0
    5.1391    3.1619    0.0000 N   0  0  0  0  0  0  0  0  0  0  0  0
    5.0529    3.9824    0.0000 C   0  0  0  0  0  0  0  0  0  0  0  0
    5.8928    2.8263    0.0000 C   0  0  0  0  0  0  0  0  0  0  0  0
    2.5579   -0.8311    0.0000 C   0  0  0  0  0  0  0  0  0  0  0  0
    1.7733   -0.5762    0.0000 N   0  0  0  0  0  0  0  0  0  0  0  0
    0.9483   -0.5762    0.0000 C   0  0  0  0  0  0  0  0  0  0  0  0
    0.3649   -1.1595    0.0000 O   0  0  0  0  0  0  0  0  0  0  0  0
    0.9483    0.2488    0.0000 C   0  0  0  0  0  0  0  0  0  0  0  0
    0.3649    0.8322    0.0000 C   0  0  0  0  0  0  0  0  0  0  0  0
   -0.4319    0.6187    0.0000 C   0  0  0  0  0  0  0  0  0  0  0  0
    0.5785    1.6291    0.0000 O   0  0  0  0  0  0  0  0  0  0  0  0
    2.8129   -1.6157    0.0000 C   0  0  0  0  0  0  0  0  0  0  0  0
    2.2608   -2.2288    0.0000 O   0  0  0  0  0  0  0  0  0  0  0  0
    3.6198   -1.7873    0.0000 O   0  0  0  0  0  0  0  0  0  0  0  0
    0.0000    0.0000    0.0000 H   0  0  0  0  0  0  0  0  0  0  0  0
    0.0000    0.0000    0.0000 H   0  0  0  0  0  0  0  0  0  0  0  0
    0.0000    0.0000    0.0000 H   0  0  0  0  0  0  0  0  0  0  0  0
    0.0000    0.0000    0.0000 H   0  0  0  0  0  0  0  0  0  0  0  0
    0.0000    0.0000    0.0000 H   0  0  0  0  0  0  0  0  0  0  0  0
    0.0000    0.0000    0.0000 H   0  0  0  0  0  0  0  0  0  0  0  0
    0.0000    0.0000    0.0000 H   0  0  0  0  0  0  0  0  0  0  0  0
    0.0000    0.0000    0.0000 H   0  0  0  0  0  0  0  0  0  0  0  0
    0.0000    0.0000    0.0000 H   0  0  0  0  0  0  0  0  0  0  0  0
    0.0000    0.0000    0.0000 H   0  0  0  0  0  0  0  0  0  0  0  0
    0.0000    0.0000    0.0000 H   0  0  0  0  0  0  0  0  0  0  0  0
    0.0000    0.0000    0.0000 H   0  0  0  0  0  0  0  0  0  0  0  0
    0.0000    0.0000    0.0000 H   0  0  0  0  0  0  0  0  0  0  0  0
    0.0000    0.0000    0.0000 H   0  0  0  0  0  0  0  0  0  0  0  0
    0.0000    0.0000    0.0000 H   0  0  0  0  0  0  0  0  0  0  0  0
    0.0000    0.0000    0.0000 H   0  0  0  0  0  0  0  0  0  0  0  0
    0.0000    0.0000    0.0000 H   0  0  0  0  0  0  0  0  0  0  0  0
    0.0000    0.0000    0.0000 H   0  0  0  0  0  0  0  0  0  0  0  0
    0.0000    0.0000    0.0000 H   0  0  0  0  0  0  0  0  0  0  0  0
    0.0000    0.0000    0.0000 H   0  0  0  0  0  0  0  0  0  0  0  0
    0.0000    0.0000    0.0000 H   0  0  0  0  0  0  0  0  0  0  0  0
    0.0000    0.0000    0.0000 H   0  0  0  0  0  0  0  0  0  0  0  0
    0.0000    0.0000    0.0000 H   0  0  0  0  0  0  0  0  0  0  0  0
    0.0000    0.0000    0.0000 H   0  0  0  0  0  0  0  0  0  0  0  0
    0.0000    0.0000    0.0000 H   0  0  0  0  0  0  0  0  0  0  0  0
  1  2  1  0
  2  3  1  1
  2  4  1  0
  4  5  1  0
  6  5  1  1
  6  7  1  0
  7  8  1  0
  8  9  1  0
  9 10  1  0
  6 10  1  0
  9 11  1  1
 11 12  2  0
 11 13  1  0
 13 14  1  0
 13 15  1  0
  4 16  2  0
 16 17  1  0
  1 17  1  0
 17 18  1  0
 18 19  2  0
 18 20  1  0
  1 20  1  0
 20 21  1  0
 21 22  1  1
 21 23  1  0
 16 24  1  0
 24 25  1  0
 24 26  2  0
  1 27  1  6
  2 28  1  0
  3 29  1  0
  3 30  1  0
  3 31  1  0
  6 32  1  0
  7 33  1  0
  7 34  1  0
  8 35  1  0
  9 36  1  0
 10 37  1  0
 10 38  1  0
 14 39  1  0
 14 40  1  0
 14 41  1  0
 15 42  1  0
 15 43  1  0
 15 44  1  0
 20 45  1  1
 21 46  1  0
 22 47  1  0
 22 48  1  0
 22 49  1  0
 23 50  1  0
 25 51  1  0
M  END
>  <ALOGPS_LOGP>  (1) 
-0.69

>  <ALOGPS_LOGS>  (1) 
-1.83

>  <ALOGPS_SOLUBILITY>  (1) 
5.63e+00 g/l

>  <DATABASE_ID>  (1) 
DB00760

>  <DATABASE_NAME>  (1) 
drugbank

>  <DRUGBANK_ID>  (1) 
DB00760

>  <DRUG_GROUPS>  (1) 
approved; investigational

>  <EXACT_MASS>  (1) 
383.151491615

>  <FORMULA>  (1) 
C17H25N3O5S

>  <GENERIC_NAME>  (1) 
Meropenem

>  <INCHI_IDENTIFIER>  (1) 
InChI=1S/C17H25N3O5S/c1-7-12-11(8(2)21)16(23)20(12)13(17(24)25)14(7)26-9-5-10(18-6-9)15(22)19(3)4/h7-12,18,21H,5-6H2,1-4H3,(H,24,25)/t7-,8-,9+,10+,11-,12-/m1/s1

>  <INCHI_KEY>  (1) 
DMJNNHOOLUXYBV-PQTSNVLCSA-N

>  <INTERNATIONAL_BRANDS>  (1) 
Aronem; Aropen; Carbanem; Erope; Fulspec; I-penam; Merenz; Merofit; Meronem; Meronis; Meropen; Merotec; Merrem; Merrem I.V.; Monan; Ropenem; Zeropenem

>  <JCHEM_ACCEPTOR_COUNT>  (1) 
6

>  <JCHEM_AVERAGE_POLARIZABILITY>  (1) 
39.28805653294991

>  <JCHEM_BIOAVAILABILITY>  (1) 
1

>  <JCHEM_DONOR_COUNT>  (1) 
3

>  <JCHEM_FORMAL_CHARGE>  (1) 
0

>  <JCHEM_GHOSE_FILTER>  (1) 
0

>  <JCHEM_IUPAC>  (1) 
(4R,5S,6S)-3-{[(3S,5S)-5-(dimethylcarbamoyl)pyrrolidin-3-yl]sulfanyl}-6-[(1R)-1-hydroxyethyl]-4-methyl-7-oxo-1-azabicyclo[3.2.0]hept-2-ene-2-carboxylic acid

>  <JCHEM_LOGP>  (1) 
-4.353987286652533

>  <JCHEM_MDDR_LIKE_RULE>  (1) 
0

>  <JCHEM_NUMBER_OF_RINGS>  (1) 
3

>  <JCHEM_PHYSIOLOGICAL_CHARGE>  (1) 
0

>  <JCHEM_PKA>  (1) 
14.999794011052362

>  <JCHEM_PKA_STRONGEST_ACIDIC>  (1) 
3.470419337572864

>  <JCHEM_PKA_STRONGEST_BASIC>  (1) 
9.394083629246506

>  <JCHEM_POLAR_SURFACE_AREA>  (1) 
110.18

>  <JCHEM_REFRACTIVITY>  (1) 
97.8862

>  <JCHEM_ROTATABLE_BOND_COUNT>  (1) 
5

>  <JCHEM_RULE_OF_FIVE>  (1) 
1

>  <JCHEM_TRADITIONAL_IUPAC>  (1) 
meropenem

>  <JCHEM_VEBER_RULE>  (1) 
0

>  <MOLECULAR_WEIGHT>  (1) 
383.463

>  <PRODUCTS>  (1) 
Meropenem; Meropenem and Sodium Chloride; Meropenem for Injection; Meropenem for Injection Sdz; Meropenem for Injection USP; Merrem; Merrem - Add-vantage Vials - Pws IV 1 G/vial; Merrem - Add-vantage Vials-pws IV 500 Mg/vial; Merrem IV; Ran-meropenem; Vabomere

>  <SECONDARY_ACCESSION_NUMBERS>  (1) 
APRD01097; EXPT02153

>  <SMILES>  (1) 
[H][C@]1([C@@H](C)O)C(=O)N2C(C(O)=O)=C(S[C@@H]3CN[C@@H](C3)C(=O)N(C)C)[C@H](C)[C@]12[H]

>  <SYNONYMS>  (1) 
Meropenem; Meropenem Hydrate; Meropenem trihydrate; Meropenemum; Meropenemum trihydricum

$$$$
