Xanthotoxin
     RDKit          2D

 24 26  0  0  0  0  0  0  0  0999 V2000
    2.6378    0.1271    0.0000 C   0  0  0  0  0  0  0  0  0  0  0  0
    3.3523   -0.2854    0.0000 O   0  0  0  0  0  0  0  0  0  0  0  0
    3.3523   -1.1104    0.0000 C   0  0  0  0  0  0  0  0  0  0  0  0
    4.0668   -1.5229    0.0000 C   0  0  0  0  0  0  0  0  0  0  0  0
    4.7812   -1.1104    0.0000 O   0  0  0  0  0  0  0  0  0  0  0  0
    5.4957   -1.5229    0.0000 C   0  0  0  0  0  0  0  0  0  0  0  0
    6.2102   -1.1104    0.0000 O   0  0  0  0  0  0  0  0  0  0  0  0
    5.4957   -2.3479    0.0000 C   0  0  0  0  0  0  0  0  0  0  0  0
    4.7812   -2.7604    0.0000 C   0  0  0  0  0  0  0  0  0  0  0  0
    4.0668   -2.3479    0.0000 C   0  0  0  0  0  0  0  0  0  0  0  0
    3.3523   -2.7604    0.0000 C   0  0  0  0  0  0  0  0  0  0  0  0
    2.6378   -2.3479    0.0000 C   0  0  0  0  0  0  0  0  0  0  0  0
    2.6378   -1.5229    0.0000 C   0  0  0  0  0  0  0  0  0  0  0  0
    1.8532   -1.2680    0.0000 O   0  0  0  0  0  0  0  0  0  0  0  0
    1.3683   -1.9354    0.0000 C   0  0  0  0  0  0  0  0  0  0  0  0
    1.8532   -2.6029    0.0000 C   0  0  0  0  0  0  0  0  0  0  0  0
    0.0000    0.0000    0.0000 H   0  0  0  0  0  0  0  0  0  0  0  0
    0.0000    0.0000    0.0000 H   0  0  0  0  0  0  0  0  0  0  0  0
    0.0000    0.0000    0.0000 H   0  0  0  0  0  0  0  0  0  0  0  0
    0.0000    0.0000    0.0000 H   0  0  0  0  0  0  0  0  0  0  0  0
    0.0000    0.0000    0.0000 H   0  0  0  0  0  0  0  0  0  0  0  0
    0.0000    0.0000    0.0000 H   0  0  0  0  0  0  0  0  0  0  0  0
    0.0000    0.0000    0.0000 H   0  0  0  0  0  0  0  0  0  0  0  0
    0.0000    0.0000    0.0000 H   0  0  0  0  0  0  0  0  0  0  0  0
  1  2  1  0
  2  3  1  0
  3  4  2  0
  4  5  1  0
  5  6  1  0
  6  7  2  0
  6  8  1  0
  8  9  2  0
  9 10  1  0
  4 10  1  0
 10 11  2  0
 11 12  1  0
 12 13  2  0
  3 13  1  0
 13 14  1  0
 14 15  1  0
 15 16  2  0
 12 16  1  0
  1 17  1  0
  1 18  1  0
  1 19  1  0
  8 20  1  0
  9 21  1  0
 11 22  1  0
 15 23  1  0
 16 24  1  0
M  END
>  <ALOGPS_LOGP>  (1) 
2.10

>  <ALOGPS_LOGS>  (1) 
-3.12

>  <ALOGPS_SOLUBILITY>  (1) 
1.64e-01 g/l

>  <DATABASE_ID>  (1) 
DB00553

>  <DATABASE_NAME>  (1) 
drugbank

>  <DRUGBANK_ID>  (1) 
DB00553

>  <DRUG_GROUPS>  (1) 
approved

>  <EXACT_MASS>  (1) 
216.042258738

>  <FORMULA>  (1) 
C12H8O4

>  <GENERIC_NAME>  (1) 
Methoxsalen

>  <INCHI_IDENTIFIER>  (1) 
InChI=1S/C12H8O4/c1-14-12-10-8(4-5-15-10)6-7-2-3-9(13)16-11(7)12/h2-6H,1H3

>  <INCHI_KEY>  (1) 
QXKHYNVANLEOEG-UHFFFAOYSA-N

>  <INTERNATIONAL_BRANDS>  (1) 
Deltasoralen; Meladinine

>  <JCHEM_ACCEPTOR_COUNT>  (1) 
2

>  <JCHEM_ATOM_COUNT>  (1) 
24

>  <JCHEM_AVERAGE_POLARIZABILITY>  (1) 
20.978883414920794

>  <JCHEM_BIOAVAILABILITY>  (1) 
1

>  <JCHEM_DONOR_COUNT>  (1) 
0

>  <JCHEM_FORMAL_CHARGE>  (1) 
0

>  <JCHEM_GHOSE_FILTER>  (1) 
1

>  <JCHEM_IUPAC>  (1) 
9-methoxy-7H-furo[3,2-g]chromen-7-one

>  <JCHEM_LOGP>  (1) 
1.7848117503333332

>  <JCHEM_MDDR_LIKE_RULE>  (1) 
0

>  <JCHEM_NUMBER_OF_RINGS>  (1) 
3

>  <JCHEM_PHYSIOLOGICAL_CHARGE>  (1) 
0

>  <JCHEM_PKA_STRONGEST_BASIC>  (1) 
-2.9251351971985664

>  <JCHEM_POLAR_SURFACE_AREA>  (1) 
48.67

>  <JCHEM_REFRACTIVITY>  (1) 
56.852900000000005

>  <JCHEM_ROTATABLE_BOND_COUNT>  (1) 
1

>  <JCHEM_RULE_OF_FIVE>  (1) 
1

>  <JCHEM_TRADITIONAL_IUPAC>  (1) 
methoxsalen

>  <JCHEM_VEBER_RULE>  (1) 
0

>  <MOLECULAR_WEIGHT>  (1) 
216.192

>  <PRODUCTS>  (1) 
8-MOP; Methoxsalen; Oxsoralen; Oxsoralen Cap 10mg; Oxsoralen Lot 10mg/ml; Oxsoralen-Ultra; Oxsoralen-ultra Cap 10mg; Ultra Mop Lotion 1%; Ultramop Cap 10mg; Uvadex

>  <SECONDARY_ACCESSION_NUMBERS>  (1) 
APRD00157

>  <SMILES>  (1) 
COC1=C2OC(=O)C=CC2=CC2=C1OC=C2

>  <SYNONYMS>  (1) 
Ammoidin; Methoxsalen; Méthoxsalène; Xanthotoxin

$$$$
