
     RDKit          2D

 43 41  0  0  0  0  0  0  0  0999 V2000
    0.0000    0.0000    0.0000 Na  0  0  0  0  0  0  0  0  0  0  0  0
    2.2393   -0.2669    0.0000 C   0  0  0  0  0  0  0  0  0  0  0  0
    2.9538    0.1456    0.0000 C   0  0  0  0  0  0  0  0  0  0  0  0
    3.6682   -0.2669    0.0000 C   0  0  0  0  0  0  0  0  0  0  0  0
    4.3827    0.1456    0.0000 C   0  0  0  0  0  0  0  0  0  0  0  0
    5.0972   -0.2669    0.0000 C   0  0  0  0  0  0  0  0  0  0  0  0
    5.8116    0.1456    0.0000 C   0  0  0  0  0  0  0  0  0  0  0  0
    6.5261   -0.2669    0.0000 C   0  0  0  0  0  0  0  0  0  0  0  0
    7.2406    0.1456    0.0000 C   0  0  0  0  0  0  0  0  0  0  0  0
    7.9551   -0.2669    0.0000 C   0  0  0  0  0  0  0  0  0  0  0  0
    8.6695    0.1456    0.0000 C   0  0  0  0  0  0  0  0  0  0  0  0
    9.3840   -0.2669    0.0000 C   0  0  0  0  0  0  0  0  0  0  0  0
   10.0985    0.1456    0.0000 C   0  0  0  0  0  0  0  0  0  0  0  0
   10.8129   -0.2669    0.0000 O   0  0  0  0  0  0  0  0  0  0  0  0
   11.5274    0.1456    0.0000 S   0  0  0  0  0  0  0  0  0  0  0  0
   12.2419    0.5581    0.0000 O   0  0  0  0  0  0  0  0  0  0  0  0
   11.9399   -0.5689    0.0000 O   0  0  0  0  0  0  0  0  0  0  0  0
   11.1149    0.8601    0.0000 O   0  0  0  0  0  0  0  0  0  0  0  0
    0.0000    0.0000    0.0000 H   0  0  0  0  0  0  0  0  0  0  0  0
    0.0000    0.0000    0.0000 H   0  0  0  0  0  0  0  0  0  0  0  0
    0.0000    0.0000    0.0000 H   0  0  0  0  0  0  0  0  0  0  0  0
    0.0000    0.0000    0.0000 H   0  0  0  0  0  0  0  0  0  0  0  0
    0.0000    0.0000    0.0000 H   0  0  0  0  0  0  0  0  0  0  0  0
    0.0000    0.0000    0.0000 H   0  0  0  0  0  0  0  0  0  0  0  0
    0.0000    0.0000    0.0000 H   0  0  0  0  0  0  0  0  0  0  0  0
    0.0000    0.0000    0.0000 H   0  0  0  0  0  0  0  0  0  0  0  0
    0.0000    0.0000    0.0000 H   0  0  0  0  0  0  0  0  0  0  0  0
    0.0000    0.0000    0.0000 H   0  0  0  0  0  0  0  0  0  0  0  0
    0.0000    0.0000    0.0000 H   0  0  0  0  0  0  0  0  0  0  0  0
    0.0000    0.0000    0.0000 H   0  0  0  0  0  0  0  0  0  0  0  0
    0.0000    0.0000    0.0000 H   0  0  0  0  0  0  0  0  0  0  0  0
    0.0000    0.0000    0.0000 H   0  0  0  0  0  0  0  0  0  0  0  0
    0.0000    0.0000    0.0000 H   0  0  0  0  0  0  0  0  0  0  0  0
    0.0000    0.0000    0.0000 H   0  0  0  0  0  0  0  0  0  0  0  0
    0.0000    0.0000    0.0000 H   0  0  0  0  0  0  0  0  0  0  0  0
    0.0000    0.0000    0.0000 H   0  0  0  0  0  0  0  0  0  0  0  0
    0.0000    0.0000    0.0000 H   0  0  0  0  0  0  0  0  0  0  0  0
    0.0000    0.0000    0.0000 H   0  0  0  0  0  0  0  0  0  0  0  0
    0.0000    0.0000    0.0000 H   0  0  0  0  0  0  0  0  0  0  0  0
    0.0000    0.0000    0.0000 H   0  0  0  0  0  0  0  0  0  0  0  0
    0.0000    0.0000    0.0000 H   0  0  0  0  0  0  0  0  0  0  0  0
    0.0000    0.0000    0.0000 H   0  0  0  0  0  0  0  0  0  0  0  0
    0.0000    0.0000    0.0000 H   0  0  0  0  0  0  0  0  0  0  0  0
  2  3  1  0
  3  4  1  0
  4  5  1  0
  5  6  1  0
  6  7  1  0
  7  8  1  0
  8  9  1  0
  9 10  1  0
 10 11  1  0
 11 12  1  0
 12 13  1  0
 13 14  1  0
 14 15  1  0
 15 16  1  0
 15 17  2  0
 15 18  2  0
  2 19  1  0
  2 20  1  0
  2 21  1  0
  3 22  1  0
  3 23  1  0
  4 24  1  0
  4 25  1  0
  5 26  1  0
  5 27  1  0
  6 28  1  0
  6 29  1  0
  7 30  1  0
  7 31  1  0
  8 32  1  0
  8 33  1  0
  9 34  1  0
  9 35  1  0
 10 36  1  0
 10 37  1  0
 11 38  1  0
 11 39  1  0
 12 40  1  0
 12 41  1  0
 13 42  1  0
 13 43  1  0
M  CHG  2   1   1  16  -1
M  END
>  <ALOGPS_LOGP>  (1) 
3.86

>  <ALOGPS_LOGS>  (1) 
-4.38

>  <ALOGPS_SOLUBILITY>  (1) 
1.21e-02 g/l

>  <DATABASE_ID>  (1) 
DB00815

>  <DATABASE_NAME>  (1) 
drugbank

>  <DRUGBANK_ID>  (1) 
DB00815

>  <DRUG_GROUPS>  (1) 
approved

>  <EXACT_MASS>  (1) 
288.137124653

>  <FORMULA>  (1) 
C12H25NaO4S

>  <GENERIC_NAME>  (1) 
Sodium lauryl sulfate

>  <INCHI_IDENTIFIER>  (1) 
InChI=1S/C12H26O4S.Na/c1-2-3-4-5-6-7-8-9-10-11-12-16-17(13,14)15;/h2-12H2,1H3,(H,13,14,15);/q;+1/p-1

>  <INCHI_KEY>  (1) 
DBMJMQXJHONAFJ-UHFFFAOYSA-M

>  <INTERNATIONAL_BRANDS>  (1) 
Anticerumen; Emal 10; Empicol; Genapol LSS; Irium

>  <JCHEM_ACCEPTOR_COUNT>  (1) 
3

>  <JCHEM_AVERAGE_POLARIZABILITY>  (1) 
31.16542376310605

>  <JCHEM_BIOAVAILABILITY>  (1) 
1

>  <JCHEM_DONOR_COUNT>  (1) 
0

>  <JCHEM_FORMAL_CHARGE>  (1) 
0

>  <JCHEM_GHOSE_FILTER>  (1) 
1

>  <JCHEM_IUPAC>  (1) 
sodium dodecyl sulfate

>  <JCHEM_LOGP>  (1) 
4.4168570339999995

>  <JCHEM_MDDR_LIKE_RULE>  (1) 
0

>  <JCHEM_NUMBER_OF_RINGS>  (1) 
0

>  <JCHEM_PHYSIOLOGICAL_CHARGE>  (1) 
-1

>  <JCHEM_PKA_STRONGEST_ACIDIC>  (1) 
-1.450855135938677

>  <JCHEM_POLAR_SURFACE_AREA>  (1) 
66.43

>  <JCHEM_REFRACTIVITY>  (1) 
67.81299999999999

>  <JCHEM_ROTATABLE_BOND_COUNT>  (1) 
12

>  <JCHEM_RULE_OF_FIVE>  (1) 
1

>  <JCHEM_TRADITIONAL_IUPAC>  (1) 
sodium dodecyl sulfate

>  <JCHEM_VEBER_RULE>  (1) 
0

>  <MOLECULAR_WEIGHT>  (1) 
288.379

>  <PRODUCTS>  (1) 
Bamboo Salt; Bamboo Salt 160g; Dr.G Hydra Intensive Moist Cleansing gel; For Sope; Medi Hydro DP Cleanser; Plax Anti-plaque Dental Rinse; Sensible; Trimo San

>  <SECONDARY_ACCESSION_NUMBERS>  (1) 
APRD01606

>  <SMILES>  (1) 
[Na+].CCCCCCCCCCCCOS([O-])(=O)=O

>  <SYNONYMS>  (1) 
Laurylsiran sodny; NaDS; Natrium laurylsulfuricum; SDS; SLS; Sodium dodecyl sulfate; Sodium dodecyl sulphate; Sodium dodecylsulfate; Sodium laurilsulfate; Sodium lauryl sulphate

$$$$
