962
     RDKit          2D

 38 40  0  0  0  0  0  0  0  0999 V2000
    3.0791    3.3850    0.0000 O   0  0  0  0  0  0  0  0  0  0  0  0
    3.7935    2.1474    0.0000 N   0  0  0  0  0  0  0  0  0  0  0  0
    3.0791   -0.7401    0.0000 N   0  0  0  0  0  0  0  0  0  0  0  0
    3.8597   -0.4887    0.0000 N   0  0  0  0  0  0  0  0  0  0  0  0
    2.3645   -1.9777    0.0000 N   0  0  0  0  0  0  0  0  0  0  0  0
    4.3723   -3.3850    0.0000 N   0  0  0  0  0  0  0  0  0  0  0  0
    2.3645    0.4974    0.0000 C   0  0  0  0  0  0  0  0  0  0  0  0
    3.0791    1.7349    0.0000 C   0  0  0  0  0  0  0  0  0  0  0  0
    2.3645   -0.3276    0.0000 C   0  0  0  0  0  0  0  0  0  0  0  0
    3.0791    0.9099    0.0000 C   0  0  0  0  0  0  0  0  0  0  0  0
    4.5080    1.7349    0.0000 C   0  0  0  0  0  0  0  0  0  0  0  0
    1.6500    0.9099    0.0000 C   0  0  0  0  0  0  0  0  0  0  0  0
    2.3645    2.1474    0.0000 C   0  0  0  0  0  0  0  0  0  0  0  0
    3.0791   -1.5651    0.0000 C   0  0  0  0  0  0  0  0  0  0  0  0
    1.6500    1.7349    0.0000 C   0  0  0  0  0  0  0  0  0  0  0  0
    1.6500   -0.7401    0.0000 C   0  0  0  0  0  0  0  0  0  0  0  0
    3.7935    2.9725    0.0000 C   0  0  0  0  0  0  0  0  0  0  0  0
    5.2224    2.1474    0.0000 C   0  0  0  0  0  0  0  0  0  0  0  0
    3.8597   -1.8165    0.0000 C   0  0  0  0  0  0  0  0  0  0  0  0
    1.6500   -1.5651    0.0000 C   0  0  0  0  0  0  0  0  0  0  0  0
    4.3412   -1.1526    0.0000 C   0  0  0  0  0  0  0  0  0  0  0  0
    4.5080    3.3850    0.0000 C   0  0  0  0  0  0  0  0  0  0  0  0
    4.1159   -2.6008    0.0000 C   0  0  0  0  0  0  0  0  0  0  0  0
    0.0000    0.0000    0.0000 H   0  0  0  0  0  0  0  0  0  0  0  0
    0.0000    0.0000    0.0000 H   0  0  0  0  0  0  0  0  0  0  0  0
    0.0000    0.0000    0.0000 H   0  0  0  0  0  0  0  0  0  0  0  0
    0.0000    0.0000    0.0000 H   0  0  0  0  0  0  0  0  0  0  0  0
    0.0000    0.0000    0.0000 H   0  0  0  0  0  0  0  0  0  0  0  0
    0.0000    0.0000    0.0000 H   0  0  0  0  0  0  0  0  0  0  0  0
    0.0000    0.0000    0.0000 H   0  0  0  0  0  0  0  0  0  0  0  0
    0.0000    0.0000    0.0000 H   0  0  0  0  0  0  0  0  0  0  0  0
    0.0000    0.0000    0.0000 H   0  0  0  0  0  0  0  0  0  0  0  0
    0.0000    0.0000    0.0000 H   0  0  0  0  0  0  0  0  0  0  0  0
    0.0000    0.0000    0.0000 H   0  0  0  0  0  0  0  0  0  0  0  0
    0.0000    0.0000    0.0000 H   0  0  0  0  0  0  0  0  0  0  0  0
    0.0000    0.0000    0.0000 H   0  0  0  0  0  0  0  0  0  0  0  0
    0.0000    0.0000    0.0000 H   0  0  0  0  0  0  0  0  0  0  0  0
    0.0000    0.0000    0.0000 H   0  0  0  0  0  0  0  0  0  0  0  0
  1 17  2  0
  2  8  1  0
  2 11  1  0
  2 17  1  0
  3  4  1  0
  3  9  1  0
  3 14  1  0
  4 21  2  0
  5 14  1  0
  5 20  2  0
  6 23  3  0
  7  9  1  0
  7 10  1  0
  7 12  2  0
  8 10  2  0
  8 13  1  0
  9 16  2  0
 11 18  1  0
 12 15  1  0
 13 15  2  0
 14 19  2  0
 16 20  1  0
 17 22  1  0
 19 21  1  0
 19 23  1  0
 10 24  1  0
 11 25  1  0
 11 26  1  0
 12 27  1  0
 13 28  1  0
 15 29  1  0
 16 30  1  0
 18 31  1  0
 18 32  1  0
 18 33  1  0
 20 34  1  0
 21 35  1  0
 22 36  1  0
 22 37  1  0
 22 38  1  0
M  END
>  <ALOGPS_LOGP>  (1) 
2.00

>  <ALOGPS_LOGS>  (1) 
-3.88

>  <ALOGPS_SOLUBILITY>  (1) 
4.03e-02 g/l

>  <DATABASE_ID>  (1) 
DB00962

>  <DATABASE_NAME>  (1) 
drugbank

>  <DRUGBANK_ID>  (1) 
DB00962

>  <DRUG_GROUPS>  (1) 
approved; illicit; investigational

>  <EXACT_MASS>  (1) 
305.127660127

>  <FORMULA>  (1) 
C17H15N5O

>  <GENERIC_NAME>  (1) 
Zaleplon

>  <INCHI_IDENTIFIER>  (1) 
InChI=1S/C17H15N5O/c1-3-21(12(2)23)15-6-4-5-13(9-15)16-7-8-19-17-14(10-18)11-20-22(16)17/h4-9,11H,3H2,1-2H3

>  <INCHI_KEY>  (1) 
HUNXMJYCHXQEGX-UHFFFAOYSA-N

>  <JCHEM_ACCEPTOR_COUNT>  (1) 
4

>  <JCHEM_AVERAGE_POLARIZABILITY>  (1) 
32.09341454372763

>  <JCHEM_BIOAVAILABILITY>  (1) 
1

>  <JCHEM_DONOR_COUNT>  (1) 
0

>  <JCHEM_FORMAL_CHARGE>  (1) 
0

>  <JCHEM_GHOSE_FILTER>  (1) 
1

>  <JCHEM_IUPAC>  (1) 
N-(3-{3-cyanopyrazolo[1,5-a]pyrimidin-7-yl}phenyl)-N-ethylacetamide

>  <JCHEM_LOGP>  (1) 
1.5348796856666667

>  <JCHEM_MDDR_LIKE_RULE>  (1) 
0

>  <JCHEM_NUMBER_OF_RINGS>  (1) 
3

>  <JCHEM_PHYSIOLOGICAL_CHARGE>  (1) 
0

>  <JCHEM_PKA_STRONGEST_BASIC>  (1) 
0.3021576634174695

>  <JCHEM_POLAR_SURFACE_AREA>  (1) 
74.28999999999999

>  <JCHEM_REFRACTIVITY>  (1) 
97.23639999999999

>  <JCHEM_ROTATABLE_BOND_COUNT>  (1) 
3

>  <JCHEM_RULE_OF_FIVE>  (1) 
1

>  <JCHEM_TRADITIONAL_IUPAC>  (1) 
zaleplon

>  <JCHEM_VEBER_RULE>  (1) 
0

>  <MOLECULAR_WEIGHT>  (1) 
305.3339

>  <PRODUCTS>  (1) 
Sonata; Starnoc; Zaleplon

>  <SECONDARY_ACCESSION_NUMBERS>  (1) 
APRD00411

>  <SMILES>  (1) 
CCN(C(C)=O)C1=CC=CC(=C1)C1=CC=NC2=C(C=NN12)C#N

$$$$
