672
     RDKit          2D

 30 30  0  0  0  0  0  0  0  0999 V2000
    2.4751   -3.5063    0.0000 Cl  0  0  0  0  0  0  0  0  0  0  0  0
    2.4751   -0.2063    0.0000 S   0  0  0  0  0  0  0  0  0  0  0  0
    1.6500   -0.2063    0.0000 O   0  0  0  0  0  0  0  0  0  0  0  0
    3.3001   -0.2063    0.0000 O   0  0  0  0  0  0  0  0  0  0  0  0
    3.9041    0.6188    0.0000 O   0  0  0  0  0  0  0  0  0  0  0  0
    2.4751    0.6188    0.0000 N   0  0  0  0  0  0  0  0  0  0  0  0
    3.1895    1.8563    0.0000 N   0  0  0  0  0  0  0  0  0  0  0  0
    3.9041    2.2688    0.0000 C   0  0  0  0  0  0  0  0  0  0  0  0
    2.4751   -1.0313    0.0000 C   0  0  0  0  0  0  0  0  0  0  0  0
    3.9041    3.0938    0.0000 C   0  0  0  0  0  0  0  0  0  0  0  0
    3.1895    1.0313    0.0000 C   0  0  0  0  0  0  0  0  0  0  0  0
    3.1895   -1.4438    0.0000 C   0  0  0  0  0  0  0  0  0  0  0  0
    1.7606   -1.4438    0.0000 C   0  0  0  0  0  0  0  0  0  0  0  0
    4.6185    3.5063    0.0000 C   0  0  0  0  0  0  0  0  0  0  0  0
    3.1895   -2.2688    0.0000 C   0  0  0  0  0  0  0  0  0  0  0  0
    1.7606   -2.2688    0.0000 C   0  0  0  0  0  0  0  0  0  0  0  0
    2.4751   -2.6813    0.0000 C   0  0  0  0  0  0  0  0  0  0  0  0
    0.0000    0.0000    0.0000 H   0  0  0  0  0  0  0  0  0  0  0  0
    0.0000    0.0000    0.0000 H   0  0  0  0  0  0  0  0  0  0  0  0
    0.0000    0.0000    0.0000 H   0  0  0  0  0  0  0  0  0  0  0  0
    0.0000    0.0000    0.0000 H   0  0  0  0  0  0  0  0  0  0  0  0
    0.0000    0.0000    0.0000 H   0  0  0  0  0  0  0  0  0  0  0  0
    0.0000    0.0000    0.0000 H   0  0  0  0  0  0  0  0  0  0  0  0
    0.0000    0.0000    0.0000 H   0  0  0  0  0  0  0  0  0  0  0  0
    0.0000    0.0000    0.0000 H   0  0  0  0  0  0  0  0  0  0  0  0
    0.0000    0.0000    0.0000 H   0  0  0  0  0  0  0  0  0  0  0  0
    0.0000    0.0000    0.0000 H   0  0  0  0  0  0  0  0  0  0  0  0
    0.0000    0.0000    0.0000 H   0  0  0  0  0  0  0  0  0  0  0  0
    0.0000    0.0000    0.0000 H   0  0  0  0  0  0  0  0  0  0  0  0
    0.0000    0.0000    0.0000 H   0  0  0  0  0  0  0  0  0  0  0  0
  1 17  1  0
  2  3  2  0
  2  4  2  0
  2  6  1  0
  2  9  1  0
  5 11  2  0
  6 11  1  0
  7  8  1  0
  7 11  1  0
  8 10  1  0
  9 12  2  0
  9 13  1  0
 10 14  1  0
 12 15  1  0
 13 16  2  0
 15 17  2  0
 16 17  1  0
  6 18  1  0
  7 19  1  0
  8 20  1  0
  8 21  1  0
 10 22  1  0
 10 23  1  0
 12 24  1  0
 13 25  1  0
 14 26  1  0
 14 27  1  0
 14 28  1  0
 15 29  1  0
 16 30  1  0
M  END
>  <ALOGPS_LOGP>  (1) 
2.15

>  <ALOGPS_LOGS>  (1) 
-3.25

>  <ALOGPS_SOLUBILITY>  (1) 
1.57e-01 g/l

>  <DATABASE_ID>  (1) 
DB00672

>  <DATABASE_NAME>  (1) 
drugbank

>  <DRUGBANK_ID>  (1) 
DB00672

>  <DRUG_GROUPS>  (1) 
approved

>  <EXACT_MASS>  (1) 
276.033540689

>  <FORMULA>  (1) 
C10H13ClN2O3S

>  <GENERIC_NAME>  (1) 
Chlorpropamide

>  <INCHI_IDENTIFIER>  (1) 
InChI=1S/C10H13ClN2O3S/c1-2-7-12-10(14)13-17(15,16)9-5-3-8(11)4-6-9/h3-6H,2,7H2,1H3,(H2,12,13,14)

>  <INCHI_KEY>  (1) 
RKWGIWYCVPQPMF-UHFFFAOYSA-N

>  <INTERNATIONAL_BRANDS>  (1) 
Abemide; Chloronase; Dabinese; Diabeedol; Diabemide; Diabezin; Diabinese; Diabitex; Dibecon; Glycemin; Hypomide; Litangen; Propamide; Trane

>  <JCHEM_ACCEPTOR_COUNT>  (1) 
3

>  <JCHEM_AVERAGE_POLARIZABILITY>  (1) 
27.057008511382723

>  <JCHEM_BIOAVAILABILITY>  (1) 
1

>  <JCHEM_DONOR_COUNT>  (1) 
2

>  <JCHEM_FORMAL_CHARGE>  (1) 
0

>  <JCHEM_GHOSE_FILTER>  (1) 
1

>  <JCHEM_IUPAC>  (1) 
1-(4-chlorobenzenesulfonyl)-3-propylurea

>  <JCHEM_LOGP>  (1) 
1.941390449333333

>  <JCHEM_MDDR_LIKE_RULE>  (1) 
0

>  <JCHEM_NUMBER_OF_RINGS>  (1) 
1

>  <JCHEM_PHYSIOLOGICAL_CHARGE>  (1) 
-1

>  <JCHEM_PKA>  (1) 
17.070932277227744

>  <JCHEM_PKA_STRONGEST_ACIDIC>  (1) 
4.32916679400861

>  <JCHEM_POLAR_SURFACE_AREA>  (1) 
75.27

>  <JCHEM_REFRACTIVITY>  (1) 
65.43260000000001

>  <JCHEM_ROTATABLE_BOND_COUNT>  (1) 
3

>  <JCHEM_RULE_OF_FIVE>  (1) 
1

>  <JCHEM_TRADITIONAL_IUPAC>  (1) 
chlorpropamide

>  <JCHEM_VEBER_RULE>  (1) 
0

>  <MOLECULAR_WEIGHT>  (1) 
276.74

>  <PRODUCTS>  (1) 
Apo Chlorpropamide Tab 100mg; Apo Chlorpropamide Tab 250mg; Chlorpropamide; Chlorpropamide 100 Tab USP; Chlorpropamide Tab 250mg; Diabinese Tab 100mg; Diabinese Tab 250mg; Novo-propamide 250mg

>  <SECONDARY_ACCESSION_NUMBERS>  (1) 
APRD00029

>  <SMILES>  (1) 
CCCNC(=O)NS(=O)(=O)C1=CC=C(Cl)C=C1

>  <SYNONYMS>  (1) 
Chlorpropamid; Chlorpropamide; Chlorpropamidum; Clorpropamida

$$$$
