 
     RDKit          2D

138140  0  0  1  0  0  0  0  0999 V2000
   17.5303   -9.2087    0.0000 C   0  0  0  0  0  0  0  0  0  0  0  0
   18.2484   -8.7918    0.0000 C   0  0  0  0  0  0  0  0  0  0  0  0
   16.8096   -8.7952    0.0000 O   0  0  0  0  0  0  0  0  0  0  0  0
   17.5303  -10.0323    0.0000 C   0  0  0  0  0  0  0  0  0  0  0  0
   18.2484   -7.9682    0.0000 C   0  0  0  0  0  0  0  0  0  0  0  0
   18.9655   -9.2053    0.0000 C   0  0  0  0  0  0  0  0  0  0  0  0
   16.8096   -7.9682    0.0000 C   0  0  0  0  0  0  0  0  0  0  0  0
   16.8165  -10.4458    0.0000 C   0  0  0  0  0  0  0  0  0  0  0  0
   17.5303   -7.5547    0.0000 C   0  0  0  0  0  0  0  0  0  0  0  0
   18.9620   -7.5513    0.0000 O   0  0  0  0  0  0  0  0  0  0  0  0
   18.9655  -10.0323    0.0000 O   0  0  0  0  0  0  0  0  0  0  0  0
   19.6793   -8.7918    0.0000 O   0  0  0  0  0  0  0  0  0  0  0  0
   16.0992   -7.5582    0.0000 C   0  0  0  0  0  0  0  0  0  0  0  0
   16.8061   -7.1411    0.0000 O   0  0  0  0  0  0  0  0  0  0  0  0
   16.8199  -11.2728    0.0000 O   0  0  0  0  0  0  0  0  0  0  0  0
   16.1061  -10.0392    0.0000 C   0  0  0  0  0  0  0  0  0  0  0  0
   15.3853   -7.9716    0.0000 C   0  0  0  0  0  0  0  0  0  0  0  0
   16.1061  -11.6898    0.0000 C   0  0  0  0  0  0  0  0  0  0  0  0
   15.3922  -10.4493    0.0000 C   0  0  0  0  0  0  0  0  0  0  0  0
   14.6675   -7.5616    0.0000 C   0  0  0  0  0  0  0  0  0  0  0  0
   15.3853   -8.7987    0.0000 O   0  0  0  0  0  0  0  0  0  0  0  0
   16.1096  -12.5210    0.0000 C   0  0  0  0  0  0  0  0  0  0  0  0
   15.3922  -11.2764    0.0000 O   0  0  0  0  0  0  0  0  0  0  0  0
   14.6784  -10.0468    0.0000 C   0  0  0  0  0  0  0  0  0  0  0  0
   13.9537   -7.9751    0.0000 C   0  0  0  0  0  0  0  0  0  0  0  0
   15.3958  -12.9346    0.0000 C   0  0  0  0  0  0  0  0  0  0  0  0
   16.8276  -12.9269    0.0000 O   0  0  0  0  0  0  0  0  0  0  0  0
   14.6784  -11.6898    0.0000 C   0  0  0  0  0  0  0  0  0  0  0  0
   13.9606  -10.4603    0.0000 C   0  0  0  0  0  0  0  0  0  0  0  0
   13.2399   -7.5651    0.0000 C   0  0  0  0  0  0  0  0  0  0  0  0
   13.9571   -8.8021    0.0000 O   0  0  0  0  0  0  0  0  0  0  0  0
   14.6784  -12.5210    0.0000 C   0  0  0  0  0  0  0  0  0  0  0  0
   15.3958  -13.7615    0.0000 N   0  0  0  0  0  0  0  0  0  0  0  0
   13.9571  -11.2839    0.0000 C   0  0  0  0  0  0  0  0  0  0  0  0
   13.2467  -10.0502    0.0000 C   0  0  0  0  0  0  0  0  0  0  0  0
   12.5295   -7.9827    0.0000 C   0  0  0  0  0  0  0  0  0  0  0  0
   13.2399   -6.7379    0.0000 O   0  0  0  0  0  0  0  0  0  0  0  0
   13.9606  -12.9380    0.0000 O   0  0  0  0  0  0  0  0  0  0  0  0
   12.5364  -10.4638    0.0000 C   0  0  0  0  0  0  0  0  0  0  0  0
   11.8115   -7.5726    0.0000 C   0  0  0  0  0  0  0  0  0  0  0  0
   11.8226  -10.0537    0.0000 C   0  0  0  0  0  0  0  0  0  0  0  0
   11.0976   -7.9862    0.0000 C   0  0  0  0  0  0  0  0  0  0  0  0
   11.1046  -10.4672    0.0000 C   0  0  0  0  0  0  0  0  0  0  0  0
   10.3838   -7.5761    0.0000 C   0  0  0  0  0  0  0  0  0  0  0  0
   11.0976   -8.8131    0.0000 O   0  0  0  0  0  0  0  0  0  0  0  0
   10.3907  -10.0571    0.0000 C   0  0  0  0  0  0  0  0  0  0  0  0
    9.6700   -7.9896    0.0000 C   0  0  0  0  0  0  0  0  0  0  0  0
    9.6769  -10.4707    0.0000 C   0  0  0  0  0  0  0  0  0  0  0  0
    8.9555   -7.5795    0.0000 C   0  0  0  0  0  0  0  0  0  0  0  0
    9.6735   -8.8166    0.0000 O   0  0  0  0  0  0  0  0  0  0  0  0
    8.9666  -10.0606    0.0000 C   0  0  0  0  0  0  0  0  0  0  0  0
    8.2417   -7.9931    0.0000 C   0  0  0  0  0  0  0  0  0  0  0  0
    8.2451  -10.4741    0.0000 C   0  0  0  0  0  0  0  0  0  0  0  0
    7.5279   -7.5830    0.0000 O   0  0  0  0  0  0  0  0  0  0  0  0
    8.2417   -8.8200    0.0000 O   0  0  0  0  0  0  0  0  0  0  0  0
    7.5314  -10.0640    0.0000 C   0  0  0  0  0  0  0  0  0  0  0  0
    6.8141   -7.9965    0.0000 C   0  0  0  0  0  0  0  0  0  0  0  0
    6.8176  -10.4776    0.0000 C   0  0  0  0  0  0  0  0  0  0  0  0
    6.8141   -8.8235    0.0000 C   0  0  0  0  0  0  0  0  0  0  0  0
    6.0962   -7.5830    0.0000 C   0  0  0  0  0  0  0  0  0  0  0  0
    6.0962  -10.0640    0.0000 C   0  0  0  0  0  0  0  0  0  0  0  0
    6.0962   -9.2371    0.0000 C   0  0  0  0  0  0  0  0  0  0  0  0
    7.5314   -9.2371    0.0000 C   0  0  0  0  0  0  0  0  0  0  0  0
    5.3872  -10.4776    0.0000 C   0  0  0  0  0  0  0  0  0  0  0  0
    5.3872   -8.8235    0.0000 O   0  0  0  0  0  0  0  0  0  0  0  0
    0.0000    0.0000    0.0000 H   0  0  0  0  0  0  0  0  0  0  0  0
    0.0000    0.0000    0.0000 H   0  0  0  0  0  0  0  0  0  0  0  0
    0.0000    0.0000    0.0000 H   0  0  0  0  0  0  0  0  0  0  0  0
    0.0000    0.0000    0.0000 H   0  0  0  0  0  0  0  0  0  0  0  0
    0.0000    0.0000    0.0000 H   0  0  0  0  0  0  0  0  0  0  0  0
    0.0000    0.0000    0.0000 H   0  0  0  0  0  0  0  0  0  0  0  0
    0.0000    0.0000    0.0000 H   0  0  0  0  0  0  0  0  0  0  0  0
    0.0000    0.0000    0.0000 H   0  0  0  0  0  0  0  0  0  0  0  0
    0.0000    0.0000    0.0000 H   0  0  0  0  0  0  0  0  0  0  0  0
    0.0000    0.0000    0.0000 H   0  0  0  0  0  0  0  0  0  0  0  0
    0.0000    0.0000    0.0000 H   0  0  0  0  0  0  0  0  0  0  0  0
    0.0000    0.0000    0.0000 H   0  0  0  0  0  0  0  0  0  0  0  0
    0.0000    0.0000    0.0000 H   0  0  0  0  0  0  0  0  0  0  0  0
    0.0000    0.0000    0.0000 H   0  0  0  0  0  0  0  0  0  0  0  0
    0.0000    0.0000    0.0000 H   0  0  0  0  0  0  0  0  0  0  0  0
    0.0000    0.0000    0.0000 H   0  0  0  0  0  0  0  0  0  0  0  0
    0.0000    0.0000    0.0000 H   0  0  0  0  0  0  0  0  0  0  0  0
    0.0000    0.0000    0.0000 H   0  0  0  0  0  0  0  0  0  0  0  0
    0.0000    0.0000    0.0000 H   0  0  0  0  0  0  0  0  0  0  0  0
    0.0000    0.0000    0.0000 H   0  0  0  0  0  0  0  0  0  0  0  0
    0.0000    0.0000    0.0000 H   0  0  0  0  0  0  0  0  0  0  0  0
    0.0000    0.0000    0.0000 H   0  0  0  0  0  0  0  0  0  0  0  0
    0.0000    0.0000    0.0000 H   0  0  0  0  0  0  0  0  0  0  0  0
    0.0000    0.0000    0.0000 H   0  0  0  0  0  0  0  0  0  0  0  0
    0.0000    0.0000    0.0000 H   0  0  0  0  0  0  0  0  0  0  0  0
    0.0000    0.0000    0.0000 H   0  0  0  0  0  0  0  0  0  0  0  0
    0.0000    0.0000    0.0000 H   0  0  0  0  0  0  0  0  0  0  0  0
    0.0000    0.0000    0.0000 H   0  0  0  0  0  0  0  0  0  0  0  0
    0.0000    0.0000    0.0000 H   0  0  0  0  0  0  0  0  0  0  0  0
    0.0000    0.0000    0.0000 H   0  0  0  0  0  0  0  0  0  0  0  0
    0.0000    0.0000    0.0000 H   0  0  0  0  0  0  0  0  0  0  0  0
    0.0000    0.0000    0.0000 H   0  0  0  0  0  0  0  0  0  0  0  0
    0.0000    0.0000    0.0000 H   0  0  0  0  0  0  0  0  0  0  0  0
    0.0000    0.0000    0.0000 H   0  0  0  0  0  0  0  0  0  0  0  0
    0.0000    0.0000    0.0000 H   0  0  0  0  0  0  0  0  0  0  0  0
    0.0000    0.0000    0.0000 H   0  0  0  0  0  0  0  0  0  0  0  0
    0.0000    0.0000    0.0000 H   0  0  0  0  0  0  0  0  0  0  0  0
    0.0000    0.0000    0.0000 H   0  0  0  0  0  0  0  0  0  0  0  0
    0.0000    0.0000    0.0000 H   0  0  0  0  0  0  0  0  0  0  0  0
    0.0000    0.0000    0.0000 H   0  0  0  0  0  0  0  0  0  0  0  0
    0.0000    0.0000    0.0000 H   0  0  0  0  0  0  0  0  0  0  0  0
    0.0000    0.0000    0.0000 H   0  0  0  0  0  0  0  0  0  0  0  0
    0.0000    0.0000    0.0000 H   0  0  0  0  0  0  0  0  0  0  0  0
    0.0000    0.0000    0.0000 H   0  0  0  0  0  0  0  0  0  0  0  0
    0.0000    0.0000    0.0000 H   0  0  0  0  0  0  0  0  0  0  0  0
    0.0000    0.0000    0.0000 H   0  0  0  0  0  0  0  0  0  0  0  0
    0.0000    0.0000    0.0000 H   0  0  0  0  0  0  0  0  0  0  0  0
    0.0000    0.0000    0.0000 H   0  0  0  0  0  0  0  0  0  0  0  0
    0.0000    0.0000    0.0000 H   0  0  0  0  0  0  0  0  0  0  0  0
    0.0000    0.0000    0.0000 H   0  0  0  0  0  0  0  0  0  0  0  0
    0.0000    0.0000    0.0000 H   0  0  0  0  0  0  0  0  0  0  0  0
    0.0000    0.0000    0.0000 H   0  0  0  0  0  0  0  0  0  0  0  0
    0.0000    0.0000    0.0000 H   0  0  0  0  0  0  0  0  0  0  0  0
    0.0000    0.0000    0.0000 H   0  0  0  0  0  0  0  0  0  0  0  0
    0.0000    0.0000    0.0000 H   0  0  0  0  0  0  0  0  0  0  0  0
    0.0000    0.0000    0.0000 H   0  0  0  0  0  0  0  0  0  0  0  0
    0.0000    0.0000    0.0000 H   0  0  0  0  0  0  0  0  0  0  0  0
    0.0000    0.0000    0.0000 H   0  0  0  0  0  0  0  0  0  0  0  0
    0.0000    0.0000    0.0000 H   0  0  0  0  0  0  0  0  0  0  0  0
    0.0000    0.0000    0.0000 H   0  0  0  0  0  0  0  0  0  0  0  0
    0.0000    0.0000    0.0000 H   0  0  0  0  0  0  0  0  0  0  0  0
    0.0000    0.0000    0.0000 H   0  0  0  0  0  0  0  0  0  0  0  0
    0.0000    0.0000    0.0000 H   0  0  0  0  0  0  0  0  0  0  0  0
    0.0000    0.0000    0.0000 H   0  0  0  0  0  0  0  0  0  0  0  0
    0.0000    0.0000    0.0000 H   0  0  0  0  0  0  0  0  0  0  0  0
    0.0000    0.0000    0.0000 H   0  0  0  0  0  0  0  0  0  0  0  0
    0.0000    0.0000    0.0000 H   0  0  0  0  0  0  0  0  0  0  0  0
    0.0000    0.0000    0.0000 H   0  0  0  0  0  0  0  0  0  0  0  0
    0.0000    0.0000    0.0000 H   0  0  0  0  0  0  0  0  0  0  0  0
    0.0000    0.0000    0.0000 H   0  0  0  0  0  0  0  0  0  0  0  0
    0.0000    0.0000    0.0000 H   0  0  0  0  0  0  0  0  0  0  0  0
    0.0000    0.0000    0.0000 H   0  0  0  0  0  0  0  0  0  0  0  0
    0.0000    0.0000    0.0000 H   0  0  0  0  0  0  0  0  0  0  0  0
  1  2  1  0
  1  3  1  0
  1  4  1  0
  2  5  1  0
  2  6  1  6
  3  7  1  0
  4  8  1  0
  5  9  1  0
  5 10  1  1
  6 11  1  0
  6 12  2  0
  7 13  1  0
  7 14  1  1
  8 15  1  6
  8 16  1  0
 13 17  1  0
 18 15  1  1
 16 19  2  0
 17 20  1  0
 17 21  1  1
 18 22  1  0
 18 23  1  0
 19 24  1  0
 20 25  1  0
 22 26  1  0
 22 27  1  6
 23 28  1  0
 24 29  2  0
 25 30  1  0
 25 31  1  1
 26 32  1  0
 26 33  1  6
 28 34  1  1
 29 35  1  0
 30 36  1  0
 30 37  1  1
 32 38  1  6
 35 39  2  0
 36 40  1  0
 39 41  1  0
 40 42  1  0
 41 43  2  0
 42 44  1  0
 42 45  1  6
 43 46  1  0
 44 47  1  0
 46 48  2  0
 47 49  1  0
 47 50  1  6
 48 51  1  0
 49 52  1  0
 51 53  2  0
 52 54  1  0
 52 55  2  0
 53 56  1  0
 54 57  1  0
 56 58  2  0
 57 59  1  0
 57 60  1  6
 58 61  1  0
 59 62  1  0
 59 63  1  1
 61 64  1  6
 62 65  1  1
  7  9  1  0
 28 32  1  0
 61 62  1  0
  1 66  1  1
  2 67  1  0
  4 68  1  0
  4 69  1  0
  5 70  1  0
  8 71  1  0
  9 72  1  0
  9 73  1  0
 10 74  1  0
 11 75  1  0
 13 76  1  0
 13 77  1  0
 14 78  1  0
 16 79  1  0
 17 80  1  0
 18 81  1  0
 19 82  1  0
 20 83  1  0
 20 84  1  0
 21 85  1  0
 22 86  1  0
 24 87  1  0
 25 88  1  0
 26 89  1  0
 27 90  1  0
 28 91  1  0
 29 92  1  0
 30 93  1  0
 31 94  1  0
 32 95  1  0
 33 96  1  0
 33 97  1  0
 34 98  1  0
 34 99  1  0
 34100  1  0
 35101  1  0
 36102  1  0
 36103  1  0
 37104  1  0
 38105  1  0
 39106  1  0
 40107  1  0
 40108  1  0
 41109  1  0
 42110  1  0
 43111  1  0
 44112  1  0
 44113  1  0
 45114  1  0
 46115  1  0
 47116  1  0
 48117  1  0
 49118  1  0
 49119  1  0
 50120  1  0
 51121  1  0
 53122  1  0
 56123  1  0
 57124  1  0
 58125  1  0
 59126  1  0
 60127  1  0
 60128  1  0
 60129  1  0
 61130  1  0
 62131  1  0
 63132  1  0
 63133  1  0
 63134  1  0
 64135  1  0
 64136  1  0
 64137  1  0
 65138  1  0
M  END
>  <ALOGPS_LOGP>  (1) 
-0.66

>  <ALOGPS_LOGS>  (1) 
-4.05

>  <ALOGPS_SOLUBILITY>  (1) 
8.19e-02 g/l

>  <DATABASE_ID>  (1) 
DB00681

>  <DATABASE_NAME>  (1) 
drugbank

>  <DRUGBANK_ID>  (1) 
DB00681

>  <DRUG_GROUPS>  (1) 
approved; investigational

>  <EXACT_MASS>  (1) 
923.487849915

>  <FORMULA>  (1) 
C47H73NO17

>  <GENERIC_NAME>  (1) 
Amphotericin B

>  <INCHI_IDENTIFIER>  (1) 
InChI=1S/C47H73NO17/c1-27-17-15-13-11-9-7-5-6-8-10-12-14-16-18-34(64-46-44(58)41(48)43(57)30(4)63-46)24-38-40(45(59)60)37(54)26-47(61,65-38)25-33(51)22-36(53)35(52)20-19-31(49)21-32(50)23-39(55)62-29(3)28(2)42(27)56/h5-18,27-38,40-44,46,49-54,56-58,61H,19-26,48H2,1-4H3,(H,59,60)/b6-5+,9-7+,10-8+,13-11+,14-12+,17-15+,18-16+/t27-,28-,29-,30+,31+,32+,33-,34-,35+,36+,37-,38-,40+,41-,42+,43+,44-,46-,47+/m0/s1

>  <INCHI_KEY>  (1) 
APKFDSVGJQXUKY-INPOYWNPSA-N

>  <INTERNATIONAL_BRANDS>  (1) 
Abelect; Ampho-Moronal; Amphocil; Amphocin; Amphotericin; Fungilin; Fungisome; Fungizone; Fungizone Intravenous; Halizon

>  <JCHEM_ACCEPTOR_COUNT>  (1) 
17

>  <JCHEM_AVERAGE_POLARIZABILITY>  (1) 
99.44733295400422

>  <JCHEM_BIOAVAILABILITY>  (1) 
0

>  <JCHEM_DONOR_COUNT>  (1) 
12

>  <JCHEM_FORMAL_CHARGE>  (1) 
0

>  <JCHEM_GHOSE_FILTER>  (1) 
0

>  <JCHEM_IUPAC>  (1) 
(1R,3S,5R,6R,9R,11R,15S,16R,17R,18S,19E,21E,23E,25E,27E,29E,31E,33R,35S,36R,37S)-33-{[(2R,3S,4S,5S,6R)-4-amino-3,5-dihydroxy-6-methyloxan-2-yl]oxy}-1,3,5,6,9,11,17,37-octahydroxy-15,16,18-trimethyl-13-oxo-14,39-dioxabicyclo[33.3.1]nonatriaconta-19,21,23,25,27,29,31-heptaene-36-carboxylic acid

>  <JCHEM_LOGP>  (1) 
-2.3001616917873178

>  <JCHEM_MDDR_LIKE_RULE>  (1) 
0

>  <JCHEM_NUMBER_OF_RINGS>  (1) 
3

>  <JCHEM_PHYSIOLOGICAL_CHARGE>  (1) 
0

>  <JCHEM_PKA>  (1) 
11.826572360496307

>  <JCHEM_PKA_STRONGEST_ACIDIC>  (1) 
3.579739281930252

>  <JCHEM_PKA_STRONGEST_BASIC>  (1) 
9.113099822252716

>  <JCHEM_POLAR_SURFACE_AREA>  (1) 
319.61

>  <JCHEM_REFRACTIVITY>  (1) 
244.6705000000001

>  <JCHEM_ROTATABLE_BOND_COUNT>  (1) 
3

>  <JCHEM_RULE_OF_FIVE>  (1) 
0

>  <JCHEM_TRADITIONAL_IUPAC>  (1) 
amphotericin B

>  <JCHEM_VEBER_RULE>  (1) 
0

>  <MOLECULAR_WEIGHT>  (1) 
924.079

>  <PRODUCTS>  (1) 
Abelcet; AmBisome; Amphotec; Amphotec 100 mg; Amphotec 50 mg; Amphotericin B; Amphotericin B for Injection, USP; Fungizone Intravenous Injection 50mg

>  <SALTS>  (1) 
Amphotericin B Cholesteryl Sulfate Complex; Corifungin

>  <SECONDARY_ACCESSION_NUMBERS>  (1) 
APRD00797

>  <SMILES>  (1) 
[H][C@]12C[C@@H](O[C@@H]3O[C@H](C)[C@@H](O)[C@H](N)[C@@H]3O)\C=C\C=C\C=C\C=C\C=C\C=C\C=C\[C@H](C)[C@@H](O)[C@@H](C)[C@H](C)OC(=O)C[C@H](O)C[C@H](O)CC[C@@H](O)[C@H](O)C[C@H](O)C[C@](O)(C[C@H](O)[C@H]1C(O)=O)O2

>  <SYNONYMS>  (1) 
Amfotericina B; Amphotericin B; Amphotéricine B; Amphotericinum B; C-AmB

$$$$
