 
     RDKit          2D

 35 37  0  0  1  0  0  0  0  0999 V2000
   14.7813   -9.8538    0.0000 C   0  0  0  0  0  0  0  0  0  0  0  0
   14.5328  -10.6405    0.0000 C   0  0  0  0  0  0  0  0  0  0  0  0
   14.1188   -9.3570    0.0000 O   0  0  0  0  0  0  0  0  0  0  0  0
   13.4563   -9.8538    0.0000 C   0  0  0  0  0  0  0  0  0  0  0  0
   13.7047  -10.6405    0.0000 C   0  0  0  0  0  0  0  0  0  0  0  0
   13.2079  -11.3030    0.0000 O   0  0  0  0  0  0  0  0  0  0  0  0
   12.6696   -9.5640    0.0000 C   0  0  0  0  0  0  0  0  0  0  0  0
   12.5040   -8.7773    0.0000 O   0  0  0  0  0  0  0  0  0  0  0  0
   15.5680   -9.6054    0.0000 N   0  0  0  0  0  0  0  0  0  0  0  0
   16.1884  -10.9914    0.0000 N   0  0  0  0  0  0  0  0  0  0  0  0
   16.1999  -10.0721    0.0000 C   0  0  0  0  0  0  0  0  0  0  0  0
   16.8195   -9.5856    0.0000 C   0  0  0  0  0  0  0  0  0  0  0  0
   17.7087   -9.7702    0.0000 C   0  0  0  0  0  0  0  0  0  0  0  0
   16.8780  -11.4681    0.0000 C   0  0  0  0  0  0  0  0  0  0  0  0
   18.0258  -10.5090    0.0000 C   0  0  0  0  0  0  0  0  0  0  0  0
   17.6882  -11.2526    0.0000 N   0  0  0  0  0  0  0  0  0  0  0  0
   16.5940   -8.8331    0.0000 N   0  0  0  0  0  0  0  0  0  0  0  0
   15.7324   -8.8316    0.0000 C   0  0  0  0  0  0  0  0  0  0  0  0
   18.1854   -9.0806    0.0000 O   0  0  0  0  0  0  0  0  0  0  0  0
    0.0000    0.0000    0.0000 H   0  0  0  0  0  0  0  0  0  0  0  0
    0.0000    0.0000    0.0000 H   0  0  0  0  0  0  0  0  0  0  0  0
    0.0000    0.0000    0.0000 H   0  0  0  0  0  0  0  0  0  0  0  0
    0.0000    0.0000    0.0000 H   0  0  0  0  0  0  0  0  0  0  0  0
    0.0000    0.0000    0.0000 H   0  0  0  0  0  0  0  0  0  0  0  0
    0.0000    0.0000    0.0000 H   0  0  0  0  0  0  0  0  0  0  0  0
    0.0000    0.0000    0.0000 H   0  0  0  0  0  0  0  0  0  0  0  0
    0.0000    0.0000    0.0000 H   0  0  0  0  0  0  0  0  0  0  0  0
    0.0000    0.0000    0.0000 H   0  0  0  0  0  0  0  0  0  0  0  0
    0.0000    0.0000    0.0000 H   0  0  0  0  0  0  0  0  0  0  0  0
    0.0000    0.0000    0.0000 H   0  0  0  0  0  0  0  0  0  0  0  0
    0.0000    0.0000    0.0000 H   0  0  0  0  0  0  0  0  0  0  0  0
    0.0000    0.0000    0.0000 H   0  0  0  0  0  0  0  0  0  0  0  0
    0.0000    0.0000    0.0000 H   0  0  0  0  0  0  0  0  0  0  0  0
    0.0000    0.0000    0.0000 H   0  0  0  0  0  0  0  0  0  0  0  0
    0.0000    0.0000    0.0000 H   0  0  0  0  0  0  0  0  0  0  0  0
  1  2  1  0
  1  3  1  0
  3  4  1  0
  4  5  1  0
  2  5  1  0
  5  6  1  6
  4  7  1  1
  7  8  1  0
  1  9  1  6
 12 13  1  0
 10 14  2  0
 13 15  1  0
 11 12  2  0
 14 16  1  0
 10 11  1  0
 15 16  1  0
 12 17  1  0
 17 18  2  0
 18  9  1  0
 11  9  1  0
 13 19  1  6
  1 20  1  0
  2 21  1  0
  2 22  1  0
  4 23  1  0
  5 24  1  0
  6 25  1  0
  7 26  1  0
  7 27  1  0
  8 28  1  0
 13 29  1  0
 14 30  1  0
 15 31  1  0
 15 32  1  0
 16 33  1  0
 18 34  1  0
 19 35  1  0
M  END
>  <ALOGPS_LOGP>  (1) 
-2.03

>  <ALOGPS_LOGS>  (1) 
-1.40

>  <ALOGPS_SOLUBILITY>  (1) 
1.07e+01 g/l

>  <DATABASE_ID>  (1) 
DB00552

>  <DATABASE_NAME>  (1) 
drugbank

>  <DRUGBANK_ID>  (1) 
DB00552

>  <DRUG_GROUPS>  (1) 
approved; investigational

>  <EXACT_MASS>  (1) 
268.11715502

>  <FORMULA>  (1) 
C11H16N4O4

>  <GENERIC_NAME>  (1) 
Pentostatin

>  <INCHI_IDENTIFIER>  (1) 
InChI=1S/C11H16N4O4/c16-3-8-6(17)1-9(19-8)15-5-14-10-7(18)2-12-4-13-11(10)15/h4-9,16-18H,1-3H2,(H,12,13)/t6-,7+,8+,9+/m0/s1

>  <INCHI_KEY>  (1) 
FPVKHBSQESCIEP-JQCXWYLXSA-N

>  <JCHEM_ACCEPTOR_COUNT>  (1) 
7

>  <JCHEM_AVERAGE_POLARIZABILITY>  (1) 
26.44050089223065

>  <JCHEM_BIOAVAILABILITY>  (1) 
1

>  <JCHEM_DONOR_COUNT>  (1) 
4

>  <JCHEM_FORMAL_CHARGE>  (1) 
0

>  <JCHEM_GHOSE_FILTER>  (1) 
0

>  <JCHEM_IUPAC>  (1) 
(8R)-3-[(2R,4S,5R)-4-hydroxy-5-(hydroxymethyl)oxolan-2-yl]-3H,6H,7H,8H-imidazo[4,5-d][1,3]diazepin-8-ol

>  <JCHEM_LOGP>  (1) 
-2.0163910279999997

>  <JCHEM_MDDR_LIKE_RULE>  (1) 
0

>  <JCHEM_NUMBER_OF_RINGS>  (1) 
3

>  <JCHEM_PHYSIOLOGICAL_CHARGE>  (1) 
1

>  <JCHEM_PKA>  (1) 
13.947628022011795

>  <JCHEM_PKA_STRONGEST_ACIDIC>  (1) 
13.062051268906174

>  <JCHEM_PKA_STRONGEST_BASIC>  (1) 
8.32598891305454

>  <JCHEM_POLAR_SURFACE_AREA>  (1) 
112.13

>  <JCHEM_REFRACTIVITY>  (1) 
64.9814

>  <JCHEM_ROTATABLE_BOND_COUNT>  (1) 
2

>  <JCHEM_RULE_OF_FIVE>  (1) 
1

>  <JCHEM_TRADITIONAL_IUPAC>  (1) 
pentostatin

>  <JCHEM_VEBER_RULE>  (1) 
0

>  <MOLECULAR_WEIGHT>  (1) 
268.2691

>  <PRODUCTS>  (1) 
Nipent; Nipent Pws 10mg/vial

>  <SECONDARY_ACCESSION_NUMBERS>  (1) 
APRD00202

>  <SMILES>  (1) 
OC[C@H]1O[C@H](C[C@@H]1O)N1C=NC2=C1N=CNC[C@H]2O

>  <SYNONYMS>  (1) 
Co-vidarabine; Pentostatin; Pentostatina; Pentostatine; Pentostatinum

$$$$
