 
     RDKit          2D

 81 84  0  0  1  0  0  0  0  0999 V2000
   13.2848  -10.3477    0.0000 C   0  0  0  0  0  0  0  0  0  0  0  0
   13.2848  -11.1732    0.0000 C   0  0  0  0  0  0  0  0  0  0  0  0
   14.0019  -11.5839    0.0000 C   0  0  0  0  0  0  0  0  0  0  0  0
   14.0019   -9.9328    0.0000 C   0  0  0  0  0  0  0  0  0  0  0  0
   14.7150  -10.3477    0.0000 C   0  0  0  0  0  0  0  0  0  0  0  0
   14.7116  -11.1732    0.0000 C   0  0  0  0  0  0  0  0  0  0  0  0
   15.4253  -11.5869    0.0000 C   0  0  0  0  0  0  0  0  0  0  0  0
   15.4323   -9.9358    0.0000 C   0  0  0  0  0  0  0  0  0  0  0  0
   16.1460  -10.3537    0.0000 C   0  0  0  0  0  0  0  0  0  0  0  0
   16.1799  -11.1771    0.0000 C   0  0  0  0  0  0  0  0  0  0  0  0
   16.8486  -11.5932    0.0000 C   0  0  0  0  0  0  0  0  0  0  0  0
   16.8634   -9.9463    0.0000 C   0  0  0  0  0  0  0  0  0  0  0  0
   17.5692  -10.3666    0.0000 C   0  0  0  0  0  0  0  0  0  0  0  0
   17.5574  -11.1897    0.0000 C   0  0  0  0  0  0  0  0  0  0  0  0
   18.2650  -11.6095    0.0000 C   0  0  0  0  0  0  0  0  0  0  0  0
   18.9843  -11.2101    0.0000 C   0  0  0  0  0  0  0  0  0  0  0  0
   18.9962  -10.3871    0.0000 C   0  0  0  0  0  0  0  0  0  0  0  0
   18.2886   -9.9632    0.0000 C   0  0  0  0  0  0  0  0  0  0  0  0
   12.5693  -11.5843    0.0000 N   0  0  0  0  0  0  0  0  0  0  0  0
   11.8578  -11.1739    0.0000 C   0  0  0  0  0  0  0  0  0  0  0  0
   11.1425  -11.5850    0.0000 C   0  0  0  0  0  0  0  0  0  0  0  0
   10.4268  -11.1747    0.0000 N   0  0  0  0  0  0  0  0  0  0  0  0
    9.7115  -11.5858    0.0000 C   0  0  0  0  0  0  0  0  0  0  0  0
   11.8573  -10.3484    0.0000 O   0  0  0  0  0  0  0  0  0  0  0  0
   19.7175   -9.9825    0.0000 O   0  0  0  0  0  0  0  0  0  0  0  0
   19.6938  -11.6311    0.0000 C   0  0  0  0  0  0  0  0  0  0  0  0
   19.7232  -12.4566    0.0000 O   0  0  0  0  0  0  0  0  0  0  0  0
   20.4153  -11.2307    0.0000 N   0  0  0  0  0  0  0  0  0  0  0  0
   18.3005   -9.1376    0.0000 N   0  0  0  0  0  0  0  0  0  0  0  0
   19.0218   -8.7372    0.0000 C   0  0  0  0  0  0  0  0  0  0  0  0
   17.5951   -8.7167    0.0000 C   0  0  0  0  0  0  0  0  0  0  0  0
   15.4237  -12.4125    0.0000 O   0  0  0  0  0  0  0  0  0  0  0  0
   16.8424  -12.4188    0.0000 O   0  0  0  0  0  0  0  0  0  0  0  0
   18.2532  -12.4350    0.0000 O   0  0  0  0  0  0  0  0  0  0  0  0
   14.0038  -12.4095    0.0000 O   0  0  0  0  0  0  0  0  0  0  0  0
    8.9956  -11.1754    0.0000 C   0  0  0  0  0  0  0  0  0  0  0  0
    9.2895  -12.2975    0.0000 C   0  0  0  0  0  0  0  0  0  0  0  0
   10.1151  -12.2975    0.0000 C   0  0  0  0  0  0  0  0  0  0  0  0
   17.5495  -12.0112    0.0000 O   0  0  0  0  0  0  0  0  0  0  0  0
   14.0354   -9.1072    0.0000 N   0  0  0  0  0  0  0  0  0  0  0  0
   14.7469   -8.6896    0.0000 C   0  0  0  0  0  0  0  0  0  0  0  0
   13.3159   -8.7033    0.0000 C   0  0  0  0  0  0  0  0  0  0  0  0
    0.0000    0.0000    0.0000 H   0  0  0  0  0  0  0  0  0  0  0  0
    0.0000    0.0000    0.0000 H   0  0  0  0  0  0  0  0  0  0  0  0
    0.0000    0.0000    0.0000 H   0  0  0  0  0  0  0  0  0  0  0  0
    0.0000    0.0000    0.0000 H   0  0  0  0  0  0  0  0  0  0  0  0
    0.0000    0.0000    0.0000 H   0  0  0  0  0  0  0  0  0  0  0  0
    0.0000    0.0000    0.0000 H   0  0  0  0  0  0  0  0  0  0  0  0
    0.0000    0.0000    0.0000 H   0  0  0  0  0  0  0  0  0  0  0  0
    0.0000    0.0000    0.0000 H   0  0  0  0  0  0  0  0  0  0  0  0
    0.0000    0.0000    0.0000 H   0  0  0  0  0  0  0  0  0  0  0  0
    0.0000    0.0000    0.0000 H   0  0  0  0  0  0  0  0  0  0  0  0
    0.0000    0.0000    0.0000 H   0  0  0  0  0  0  0  0  0  0  0  0
    0.0000    0.0000    0.0000 H   0  0  0  0  0  0  0  0  0  0  0  0
    0.0000    0.0000    0.0000 H   0  0  0  0  0  0  0  0  0  0  0  0
    0.0000    0.0000    0.0000 H   0  0  0  0  0  0  0  0  0  0  0  0
    0.0000    0.0000    0.0000 H   0  0  0  0  0  0  0  0  0  0  0  0
    0.0000    0.0000    0.0000 H   0  0  0  0  0  0  0  0  0  0  0  0
    0.0000    0.0000    0.0000 H   0  0  0  0  0  0  0  0  0  0  0  0
    0.0000    0.0000    0.0000 H   0  0  0  0  0  0  0  0  0  0  0  0
    0.0000    0.0000    0.0000 H   0  0  0  0  0  0  0  0  0  0  0  0
    0.0000    0.0000    0.0000 H   0  0  0  0  0  0  0  0  0  0  0  0
    0.0000    0.0000    0.0000 H   0  0  0  0  0  0  0  0  0  0  0  0
    0.0000    0.0000    0.0000 H   0  0  0  0  0  0  0  0  0  0  0  0
    0.0000    0.0000    0.0000 H   0  0  0  0  0  0  0  0  0  0  0  0
    0.0000    0.0000    0.0000 H   0  0  0  0  0  0  0  0  0  0  0  0
    0.0000    0.0000    0.0000 H   0  0  0  0  0  0  0  0  0  0  0  0
    0.0000    0.0000    0.0000 H   0  0  0  0  0  0  0  0  0  0  0  0
    0.0000    0.0000    0.0000 H   0  0  0  0  0  0  0  0  0  0  0  0
    0.0000    0.0000    0.0000 H   0  0  0  0  0  0  0  0  0  0  0  0
    0.0000    0.0000    0.0000 H   0  0  0  0  0  0  0  0  0  0  0  0
    0.0000    0.0000    0.0000 H   0  0  0  0  0  0  0  0  0  0  0  0
    0.0000    0.0000    0.0000 H   0  0  0  0  0  0  0  0  0  0  0  0
    0.0000    0.0000    0.0000 H   0  0  0  0  0  0  0  0  0  0  0  0
    0.0000    0.0000    0.0000 H   0  0  0  0  0  0  0  0  0  0  0  0
    0.0000    0.0000    0.0000 H   0  0  0  0  0  0  0  0  0  0  0  0
    0.0000    0.0000    0.0000 H   0  0  0  0  0  0  0  0  0  0  0  0
    0.0000    0.0000    0.0000 H   0  0  0  0  0  0  0  0  0  0  0  0
    0.0000    0.0000    0.0000 H   0  0  0  0  0  0  0  0  0  0  0  0
    0.0000    0.0000    0.0000 H   0  0  0  0  0  0  0  0  0  0  0  0
    0.0000    0.0000    0.0000 H   0  0  0  0  0  0  0  0  0  0  0  0
 19 20  1  0
  4  1  2  0
 20 21  1  0
 21 22  1  0
  1  2  1  0
 22 23  1  0
  9 10  1  0
 20 24  2  0
 10 11  2  0
 17 25  1  0
 11 14  1  0
 16 26  1  0
 13 12  1  0
 26 27  2  0
 12  9  1  0
 26 28  1  0
  2  3  2  0
 18 29  1  6
  3  6  1  0
 29 30  1  0
  5  6  2  0
 29 31  1  0
  6  7  1  0
  7 32  2  0
  7 10  1  0
 11 33  1  0
  9  8  1  0
 15 34  2  0
 13 14  1  0
  3 35  1  0
 14 15  1  0
 23 36  1  0
 15 16  1  0
 23 37  1  0
 16 17  2  0
 23 38  1  0
 17 18  1  0
 14 39  1  6
 18 13  1  0
  8  5  1  0
  4 40  1  0
  2 19  1  0
 40 41  1  0
  5  4  1  0
 40 42  1  0
  1 43  1  0
  8 44  1  0
  8 45  1  0
  9 46  1  6
 12 47  1  0
 12 48  1  0
 13 49  1  6
 18 50  1  0
 19 51  1  0
 21 52  1  0
 21 53  1  0
 22 54  1  0
 25 55  1  0
 28 56  1  0
 28 57  1  0
 30 58  1  0
 30 59  1  0
 30 60  1  0
 31 61  1  0
 31 62  1  0
 31 63  1  0
 33 64  1  0
 35 65  1  0
 36 66  1  0
 36 67  1  0
 36 68  1  0
 37 69  1  0
 37 70  1  0
 37 71  1  0
 38 72  1  0
 38 73  1  0
 38 74  1  0
 39 75  1  0
 41 76  1  0
 41 77  1  0
 41 78  1  0
 42 79  1  0
 42 80  1  0
 42 81  1  0
M  END
>  <ALOGPS_LOGP>  (1) 
0.66

>  <ALOGPS_LOGS>  (1) 
-3.11

>  <ALOGPS_SOLUBILITY>  (1) 
4.50e-01 g/l

>  <DATABASE_ID>  (1) 
DB00560

>  <DATABASE_NAME>  (1) 
drugbank

>  <DRUGBANK_ID>  (1) 
DB00560

>  <DRUG_GROUPS>  (1) 
approved

>  <EXACT_MASS>  (1) 
585.279863249

>  <FORMULA>  (1) 
C29H39N5O8

>  <GENERIC_NAME>  (1) 
Tigecycline

>  <INCHI_IDENTIFIER>  (1) 
InChI=1S/C29H39N5O8/c1-28(2,3)31-11-17(35)32-15-10-16(33(4)5)13-8-12-9-14-21(34(6)7)24(38)20(27(30)41)26(40)29(14,42)25(39)18(12)23(37)19(13)22(15)36/h10,12,14,21,31,36,38-39,42H,8-9,11H2,1-7H3,(H2,30,41)(H,32,35)/t12-,14-,21-,29-/m0/s1

>  <INCHI_KEY>  (1) 
FPZLLRFZJZRHSY-HJYUBDRYSA-N

>  <JCHEM_ACCEPTOR_COUNT>  (1) 
11

>  <JCHEM_AVERAGE_POLARIZABILITY>  (1) 
61.77099990875321

>  <JCHEM_BIOAVAILABILITY>  (1) 
0

>  <JCHEM_DONOR_COUNT>  (1) 
7

>  <JCHEM_FORMAL_CHARGE>  (1) 
0

>  <JCHEM_GHOSE_FILTER>  (1) 
0

>  <JCHEM_IUPAC>  (1) 
(4S,4aS,5aR,12aS)-9-[2-(tert-butylamino)acetamido]-4,7-bis(dimethylamino)-3,10,12,12a-tetrahydroxy-1,11-dioxo-1,4,4a,5,5a,6,11,12a-octahydrotetracene-2-carboxamide

>  <JCHEM_LOGP>  (1) 
-5.147120985493273

>  <JCHEM_MDDR_LIKE_RULE>  (1) 
1

>  <JCHEM_NUMBER_OF_RINGS>  (1) 
4

>  <JCHEM_PHYSIOLOGICAL_CHARGE>  (1) 
0

>  <JCHEM_PKA>  (1) 
5.017413502398503

>  <JCHEM_PKA_STRONGEST_ACIDIC>  (1) 
0.25205672085714514

>  <JCHEM_PKA_STRONGEST_BASIC>  (1) 
8.761190986995604

>  <JCHEM_POLAR_SURFACE_AREA>  (1) 
205.75999999999996

>  <JCHEM_REFRACTIVITY>  (1) 
159.34309999999994

>  <JCHEM_ROTATABLE_BOND_COUNT>  (1) 
7

>  <JCHEM_RULE_OF_FIVE>  (1) 
0

>  <JCHEM_TRADITIONAL_IUPAC>  (1) 
tigecycline

>  <JCHEM_VEBER_RULE>  (1) 
0

>  <MOLECULAR_WEIGHT>  (1) 
585.6487

>  <PRODUCTS>  (1) 
Tigecycline; Tygacil

>  <SECONDARY_ACCESSION_NUMBERS>  (1) 
APRD01307

>  <SMILES>  (1) 
[H][C@@]12CC3=C(C=C(NC(=O)CNC(C)(C)C)C(O)=C3C(=O)C1=C(O)[C@]1(O)C(=O)C(C(N)=O)=C(O)[C@@H](N(C)C)[C@]1([H])C2)N(C)C

>  <SYNONYMS>  (1) 
Tigeciclina; Tigecycline; Tigecyclinum

$$$$
