494
     RDKit          2D

 37 37  0  0  0  0  0  0  0  0999 V2000
    3.7935    1.9842    0.0000 O   0  0  0  0  0  0  0  0  0  0  0  0
    5.2224   -2.1409    0.0000 O   0  0  0  0  0  0  0  0  0  0  0  0
    3.7935   -2.9659    0.0000 O   0  0  0  0  0  0  0  0  0  0  0  0
    1.6500   -1.7284    0.0000 O   0  0  0  0  0  0  0  0  0  0  0  0
    2.3645   -2.9659    0.0000 O   0  0  0  0  0  0  0  0  0  0  0  0
    5.2224    1.9842    0.0000 N   0  0  0  0  0  0  0  0  0  0  0  0
    2.3645   -2.1409    0.0000 N   0  0  0  0  0  0  0  0  0  0  0  0
    5.9370   -0.0784    0.0000 N   0  0  0  0  0  0  0  0  0  0  0  0
    5.2224    2.8092    0.0000 C   0  0  0  0  0  0  0  0  0  0  0  0
    5.9370    1.5717    0.0000 C   0  0  0  0  0  0  0  0  0  0  0  0
    4.5080    1.5717    0.0000 C   0  0  0  0  0  0  0  0  0  0  0  0
    5.9370    3.2217    0.0000 C   0  0  0  0  0  0  0  0  0  0  0  0
    6.6515    1.9842    0.0000 C   0  0  0  0  0  0  0  0  0  0  0  0
    3.7935   -0.4909    0.0000 C   0  0  0  0  0  0  0  0  0  0  0  0
    4.5080    0.7466    0.0000 C   0  0  0  0  0  0  0  0  0  0  0  0
    3.7935    0.3341    0.0000 C   0  0  0  0  0  0  0  0  0  0  0  0
    3.0791   -0.9034    0.0000 C   0  0  0  0  0  0  0  0  0  0  0  0
    4.5080   -0.9034    0.0000 C   0  0  0  0  0  0  0  0  0  0  0  0
    3.0791   -1.7284    0.0000 C   0  0  0  0  0  0  0  0  0  0  0  0
    4.5080   -1.7284    0.0000 C   0  0  0  0  0  0  0  0  0  0  0  0
    3.7935   -2.1409    0.0000 C   0  0  0  0  0  0  0  0  0  0  0  0
    5.2224    0.3341    0.0000 C   0  0  0  0  0  0  0  0  0  0  0  0
    0.0000    0.0000    0.0000 H   0  0  0  0  0  0  0  0  0  0  0  0
    0.0000    0.0000    0.0000 H   0  0  0  0  0  0  0  0  0  0  0  0
    0.0000    0.0000    0.0000 H   0  0  0  0  0  0  0  0  0  0  0  0
    0.0000    0.0000    0.0000 H   0  0  0  0  0  0  0  0  0  0  0  0
    0.0000    0.0000    0.0000 H   0  0  0  0  0  0  0  0  0  0  0  0
    0.0000    0.0000    0.0000 H   0  0  0  0  0  0  0  0  0  0  0  0
    0.0000    0.0000    0.0000 H   0  0  0  0  0  0  0  0  0  0  0  0
    0.0000    0.0000    0.0000 H   0  0  0  0  0  0  0  0  0  0  0  0
    0.0000    0.0000    0.0000 H   0  0  0  0  0  0  0  0  0  0  0  0
    0.0000    0.0000    0.0000 H   0  0  0  0  0  0  0  0  0  0  0  0
    0.0000    0.0000    0.0000 H   0  0  0  0  0  0  0  0  0  0  0  0
    0.0000    0.0000    0.0000 H   0  0  0  0  0  0  0  0  0  0  0  0
    0.0000    0.0000    0.0000 H   0  0  0  0  0  0  0  0  0  0  0  0
    0.0000    0.0000    0.0000 H   0  0  0  0  0  0  0  0  0  0  0  0
    0.0000    0.0000    0.0000 H   0  0  0  0  0  0  0  0  0  0  0  0
  1 11  2  0
  2 20  1  0
  3 21  1  0
  4  7  1  0
  5  7  2  0
  6  9  1  0
  6 10  1  0
  6 11  1  0
  7 19  1  0
  8 22  3  0
  9 12  1  0
 10 13  1  0
 11 15  1  0
 14 16  1  0
 14 17  2  0
 14 18  1  0
 15 16  2  0
 15 22  1  0
 17 19  1  0
 18 20  2  0
 19 21  2  0
 20 21  1  0
  2 23  1  0
  3 24  1  0
  9 25  1  0
  9 26  1  0
 10 27  1  0
 10 28  1  0
 12 29  1  0
 12 30  1  0
 12 31  1  0
 13 32  1  0
 13 33  1  0
 13 34  1  0
 16 35  1  0
 17 36  1  0
 18 37  1  0
M  CHG  2   4  -1   7   1
M  END
>  <ALOGPS_LOGP>  (1) 
2.50

>  <ALOGPS_LOGS>  (1) 
-3.58

>  <ALOGPS_SOLUBILITY>  (1) 
7.97e-02 g/l

>  <DATABASE_ID>  (1) 
DB00494

>  <DATABASE_NAME>  (1) 
drugbank

>  <DRUGBANK_ID>  (1) 
DB00494

>  <DRUG_GROUPS>  (1) 
approved; investigational

>  <EXACT_MASS>  (1) 
305.101170605

>  <FORMULA>  (1) 
C14H15N3O5

>  <GENERIC_NAME>  (1) 
Entacapone

>  <INCHI_IDENTIFIER>  (1) 
InChI=1S/C14H15N3O5/c1-3-16(4-2)14(20)10(8-15)5-9-6-11(17(21)22)13(19)12(18)7-9/h5-7,18-19H,3-4H2,1-2H3/b10-5+

>  <INCHI_KEY>  (1) 
JRURYQJSLYLRLN-BJMVGYQFSA-N

>  <INTERNATIONAL_BRANDS>  (1) 
Anxopone; Comtade; Comtess

>  <JCHEM_ACCEPTOR_COUNT>  (1) 
6

>  <JCHEM_AVERAGE_POLARIZABILITY>  (1) 
29.482544434027368

>  <JCHEM_BIOAVAILABILITY>  (1) 
1

>  <JCHEM_DONOR_COUNT>  (1) 
2

>  <JCHEM_FORMAL_CHARGE>  (1) 
0

>  <JCHEM_GHOSE_FILTER>  (1) 
1

>  <JCHEM_IUPAC>  (1) 
(2E)-2-cyano-3-(3,4-dihydroxy-5-nitrophenyl)-N,N-diethylprop-2-enamide

>  <JCHEM_LOGP>  (1) 
1.634823854666667

>  <JCHEM_MDDR_LIKE_RULE>  (1) 
0

>  <JCHEM_NUMBER_OF_RINGS>  (1) 
1

>  <JCHEM_PHYSIOLOGICAL_CHARGE>  (1) 
-1

>  <JCHEM_PKA>  (1) 
10.717541933482945

>  <JCHEM_PKA_STRONGEST_ACIDIC>  (1) 
5.683746978745036

>  <JCHEM_PKA_STRONGEST_BASIC>  (1) 
-0.035749310639829

>  <JCHEM_POLAR_SURFACE_AREA>  (1) 
130.37999999999997

>  <JCHEM_REFRACTIVITY>  (1) 
80.51279999999998

>  <JCHEM_ROTATABLE_BOND_COUNT>  (1) 
5

>  <JCHEM_RULE_OF_FIVE>  (1) 
1

>  <JCHEM_TRADITIONAL_IUPAC>  (1) 
entacapone

>  <JCHEM_VEBER_RULE>  (1) 
0

>  <MOLECULAR_WEIGHT>  (1) 
305.286

>  <PRODUCTS>  (1) 
Apo-entacapone; Auro-entacapone; Carbidopa, Levodopa and Entacapone; Carbidopa, Levodopa, and Entacapone; Carbidopa, levodopa and entacapone; Comtan; Comtess; Entacapone; Entacapone Orion; Entacapone Teva; Mylan-entacapone; Sandoz Entacapone; Stalevo; Teva-entacapone

>  <SECONDARY_ACCESSION_NUMBERS>  (1) 
APRD00416

>  <SMILES>  (1) 
CCN(CC)C(=O)C(=C\C1=CC(=C(O)C(O)=C1)[N+]([O-])=O)\C#N

>  <SYNONYMS>  (1) 
Entacapona; Entacapone; Entacaponum

$$$$
