542
     RDKit          2D

 59 61  0  0  1  0  0  0  0  0999 V2000
    6.8311   -1.0225    0.0000 O   0  0  0  0  0  0  0  0  0  0  0  0
    5.2988    2.2888    0.0000 O   0  0  0  0  0  0  0  0  0  0  0  0
    6.5862    1.6688    0.0000 O   0  0  0  0  0  0  0  0  0  0  0  0
    7.9012   -2.7378    0.0000 O   0  0  0  0  0  0  0  0  0  0  0  0
    7.3791   -1.4076    0.0000 O   0  0  0  0  0  0  0  0  0  0  0  0
    5.8703    0.1822    0.0000 N   0  0  0  0  0  0  0  0  0  0  0  0
    5.8431   -2.0105    0.0000 N   0  0  0  0  0  0  0  0  0  0  0  0
    5.5124   -0.5611    0.0000 C   0  0  0  0  0  0  0  0  0  0  0  0
    4.6874   -0.5611    0.0000 C   0  0  0  0  0  0  0  0  0  0  0  0
    4.1730   -1.2061    0.0000 C   0  0  0  0  0  0  0  0  0  0  0  0
    5.4055    0.8639    0.0000 C   0  0  0  0  0  0  0  0  0  0  0  0
    6.0268   -1.2061    0.0000 C   0  0  0  0  0  0  0  0  0  0  0  0
    4.3565   -2.0105    0.0000 C   0  0  0  0  0  0  0  0  0  0  0  0
    5.0999   -2.3683    0.0000 C   0  0  0  0  0  0  0  0  0  0  0  0
    4.5828    0.8022    0.0000 C   0  0  0  0  0  0  0  0  0  0  0  0
    4.1181    1.4839    0.0000 C   0  0  0  0  0  0  0  0  0  0  0  0
    6.4882   -2.5248    0.0000 C   0  0  0  0  0  0  0  0  0  0  0  0
    5.7635    1.6072    0.0000 C   0  0  0  0  0  0  0  0  0  0  0  0
    3.6391   -2.4835    0.0000 C   0  0  0  0  0  0  0  0  0  0  0  0
    5.1772   -3.2242    0.0000 C   0  0  0  0  0  0  0  0  0  0  0  0
    3.2954    1.4222    0.0000 C   0  0  0  0  0  0  0  0  0  0  0  0
    3.6968   -3.3409    0.0000 C   0  0  0  0  0  0  0  0  0  0  0  0
    4.4710   -3.7138    0.0000 C   0  0  0  0  0  0  0  0  0  0  0  0
    7.2561   -2.2234    0.0000 C   0  0  0  0  0  0  0  0  0  0  0  0
    2.9374    0.6789    0.0000 C   0  0  0  0  0  0  0  0  0  0  0  0
    2.8307    2.1038    0.0000 C   0  0  0  0  0  0  0  0  0  0  0  0
    5.6567    3.0321    0.0000 C   0  0  0  0  0  0  0  0  0  0  0  0
    2.1147    0.6173    0.0000 C   0  0  0  0  0  0  0  0  0  0  0  0
    2.0080    2.0422    0.0000 C   0  0  0  0  0  0  0  0  0  0  0  0
    1.6500    1.2989    0.0000 C   0  0  0  0  0  0  0  0  0  0  0  0
    5.1920    3.7138    0.0000 C   0  0  0  0  0  0  0  0  0  0  0  0
    0.0000    0.0000    0.0000 H   0  0  0  0  0  0  0  0  0  0  0  0
    0.0000    0.0000    0.0000 H   0  0  0  0  0  0  0  0  0  0  0  0
    0.0000    0.0000    0.0000 H   0  0  0  0  0  0  0  0  0  0  0  0
    0.0000    0.0000    0.0000 H   0  0  0  0  0  0  0  0  0  0  0  0
    0.0000    0.0000    0.0000 H   0  0  0  0  0  0  0  0  0  0  0  0
    0.0000    0.0000    0.0000 H   0  0  0  0  0  0  0  0  0  0  0  0
    0.0000    0.0000    0.0000 H   0  0  0  0  0  0  0  0  0  0  0  0
    0.0000    0.0000    0.0000 H   0  0  0  0  0  0  0  0  0  0  0  0
    0.0000    0.0000    0.0000 H   0  0  0  0  0  0  0  0  0  0  0  0
    0.0000    0.0000    0.0000 H   0  0  0  0  0  0  0  0  0  0  0  0
    0.0000    0.0000    0.0000 H   0  0  0  0  0  0  0  0  0  0  0  0
    0.0000    0.0000    0.0000 H   0  0  0  0  0  0  0  0  0  0  0  0
    0.0000    0.0000    0.0000 H   0  0  0  0  0  0  0  0  0  0  0  0
    0.0000    0.0000    0.0000 H   0  0  0  0  0  0  0  0  0  0  0  0
    0.0000    0.0000    0.0000 H   0  0  0  0  0  0  0  0  0  0  0  0
    0.0000    0.0000    0.0000 H   0  0  0  0  0  0  0  0  0  0  0  0
    0.0000    0.0000    0.0000 H   0  0  0  0  0  0  0  0  0  0  0  0
    0.0000    0.0000    0.0000 H   0  0  0  0  0  0  0  0  0  0  0  0
    0.0000    0.0000    0.0000 H   0  0  0  0  0  0  0  0  0  0  0  0
    0.0000    0.0000    0.0000 H   0  0  0  0  0  0  0  0  0  0  0  0
    0.0000    0.0000    0.0000 H   0  0  0  0  0  0  0  0  0  0  0  0
    0.0000    0.0000    0.0000 H   0  0  0  0  0  0  0  0  0  0  0  0
    0.0000    0.0000    0.0000 H   0  0  0  0  0  0  0  0  0  0  0  0
    0.0000    0.0000    0.0000 H   0  0  0  0  0  0  0  0  0  0  0  0
    0.0000    0.0000    0.0000 H   0  0  0  0  0  0  0  0  0  0  0  0
    0.0000    0.0000    0.0000 H   0  0  0  0  0  0  0  0  0  0  0  0
    0.0000    0.0000    0.0000 H   0  0  0  0  0  0  0  0  0  0  0  0
    0.0000    0.0000    0.0000 H   0  0  0  0  0  0  0  0  0  0  0  0
  1 12  2  0
  2 18  1  0
  2 27  1  0
  3 18  2  0
  4 24  1  0
  5 24  2  0
  8  6  1  6
 11  6  1  1
  7 12  1  0
  7 14  1  0
  7 17  1  0
  8  9  1  0
  8 12  1  0
  9 10  1  0
 10 13  1  0
 11 15  1  0
 11 18  1  0
 13 14  2  0
 13 19  1  0
 14 20  1  0
 15 16  1  0
 16 21  1  0
 17 24  1  0
 19 22  2  0
 20 23  2  0
 21 25  2  0
 21 26  1  0
 22 23  1  0
 25 28  1  0
 26 29  2  0
 27 31  1  0
 28 30  2  0
 29 30  1  0
  4 32  1  0
  6 33  1  0
  8 34  1  0
  9 35  1  0
  9 36  1  0
 10 37  1  0
 10 38  1  0
 11 39  1  0
 15 40  1  0
 15 41  1  0
 16 42  1  0
 16 43  1  0
 17 44  1  0
 17 45  1  0
 19 46  1  0
 20 47  1  0
 22 48  1  0
 23 49  1  0
 25 50  1  0
 26 51  1  0
 27 52  1  0
 27 53  1  0
 28 54  1  0
 29 55  1  0
 30 56  1  0
 31 57  1  0
 31 58  1  0
 31 59  1  0
M  END
>  <ALOGPS_LOGP>  (1) 
1.14

>  <ALOGPS_LOGS>  (1) 
-4.61

>  <ALOGPS_SOLUBILITY>  (1) 
1.05e-02 g/l

>  <DATABASE_ID>  (1) 
DB00542

>  <DATABASE_NAME>  (1) 
drugbank

>  <DRUGBANK_ID>  (1) 
DB00542

>  <DRUG_GROUPS>  (1) 
approved; investigational

>  <EXACT_MASS>  (1) 
424.199822016

>  <FORMULA>  (1) 
C24H28N2O5

>  <GENERIC_NAME>  (1) 
Benazepril

>  <INCHI_IDENTIFIER>  (1) 
InChI=1S/C24H28N2O5/c1-2-31-24(30)20(14-12-17-8-4-3-5-9-17)25-19-15-13-18-10-6-7-11-21(18)26(23(19)29)16-22(27)28/h3-11,19-20,25H,2,12-16H2,1H3,(H,27,28)/t19-,20-/m0/s1

>  <INCHI_KEY>  (1) 
XPCFTKFZXHTYIP-PMACEKPBSA-N

>  <INTERNATIONAL_BRANDS>  (1) 
Briem; Cibacen; Cibacen WS; Cibacene

>  <JCHEM_ACCEPTOR_COUNT>  (1) 
5

>  <JCHEM_AVERAGE_POLARIZABILITY>  (1) 
44.976843104597954

>  <JCHEM_BIOAVAILABILITY>  (1) 
1

>  <JCHEM_DONOR_COUNT>  (1) 
2

>  <JCHEM_FORMAL_CHARGE>  (1) 
0

>  <JCHEM_GHOSE_FILTER>  (1) 
1

>  <JCHEM_IUPAC>  (1) 
2-[(3S)-3-{[(2S)-1-ethoxy-1-oxo-4-phenylbutan-2-yl]amino}-2-oxo-2,3,4,5-tetrahydro-1H-1-benzazepin-1-yl]acetic acid

>  <JCHEM_LOGP>  (1) 
1.5374391462736676

>  <JCHEM_MDDR_LIKE_RULE>  (1) 
1

>  <JCHEM_NUMBER_OF_RINGS>  (1) 
3

>  <JCHEM_PHYSIOLOGICAL_CHARGE>  (1) 
-1

>  <JCHEM_PKA>  (1) 
18.005407018196596

>  <JCHEM_PKA_STRONGEST_ACIDIC>  (1) 
3.527080154177802

>  <JCHEM_PKA_STRONGEST_BASIC>  (1) 
5.35940127465019

>  <JCHEM_POLAR_SURFACE_AREA>  (1) 
95.94000000000001

>  <JCHEM_REFRACTIVITY>  (1) 
115.22790000000003

>  <JCHEM_ROTATABLE_BOND_COUNT>  (1) 
10

>  <JCHEM_RULE_OF_FIVE>  (1) 
1

>  <JCHEM_TRADITIONAL_IUPAC>  (1) 
benazepril

>  <JCHEM_VEBER_RULE>  (1) 
0

>  <MOLECULAR_WEIGHT>  (1) 
424.4895

>  <PRODUCTS>  (1) 
Amlobenz; Amlodipine Besylate and Benazepril HCL; Amlodipine Besylate and Benazepril Hydrochloride; Amlodipine and Benazepril Hydrochloride; Amlodipine besylate and benazepril hydrochloride; Benazepril; Benazepril HCl; Benazepril Hydrochloride; Benazepril Hydrochloride and Hydrochlorothiazide; Benazepril hydrochloride; Benazepril hydrochloride and hydrochlorothiazide; Lotensin; Lotensin 10mg; Lotensin 20mg; Lotensin 5mg; Lotensin HCT; Lotrel; PMS-benazepril

>  <SALTS>  (1) 
Benazepril Hydrochloride

>  <SECONDARY_ACCESSION_NUMBERS>  (1) 
APRD00063

>  <SMILES>  (1) 
CCOC(=O)[C@H](CCC1=CC=CC=C1)N[C@H]1CCC2=CC=CC=C2N(CC(O)=O)C1=O

>  <SYNONYMS>  (1) 
Benazeprilum

$$$$
