
     RDKit          2D

176185  0  0  1  0  0  0  0  0999 V2000
    0.0000    0.8250    0.0000 C   0  0  0  0  0  0  0  0  0  0  0  0
    0.7145    0.4125    0.0000 C   0  0  0  0  0  0  0  0  0  0  0  0
   -0.7145    0.4125    0.0000 C   0  0  0  0  0  0  0  0  0  0  0  0
    0.0000   -0.8250    0.0000 C   0  0  0  0  0  0  0  0  0  0  0  0
   -0.7145   -0.4125    0.0000 C   0  0  0  0  0  0  0  0  0  0  0  0
    0.7145   -0.4125    0.0000 C   0  0  0  0  0  0  0  0  0  0  0  0
    1.4290    0.8250    0.0000 O   0  0  0  0  0  0  0  0  0  0  0  0
   -1.4289    0.8250    0.0000 O   0  0  0  0  0  0  0  0  0  0  0  0
   -4.2867   -0.8249    0.0000 C   0  0  0  0  0  0  0  0  0  0  0  0
    4.2867   -0.8250    0.0000 C   0  0  0  0  0  0  0  0  0  0  0  0
   -3.5722   -0.4124    0.0000 C   0  0  0  0  0  0  0  0  0  0  0  0
    3.5723   -0.4125    0.0000 C   0  0  0  0  0  0  0  0  0  0  0  0
   -2.1433    0.4126    0.0000 C   0  0  0  0  0  0  0  0  0  0  0  0
    2.1433    0.4125    0.0000 C   0  0  0  0  0  0  0  0  0  0  0  0
   -2.1434   -0.4124    0.0000 C   0  0  0  0  0  0  0  0  0  0  0  0
    2.8578    0.8249    0.0000 C   0  0  0  0  0  0  0  0  0  0  0  0
    3.5723    0.4124    0.0000 C   0  0  0  0  0  0  0  0  0  0  0  0
    2.8578   -0.8250    0.0000 C   0  0  0  0  0  0  0  0  0  0  0  0
   -3.5722    0.4126    0.0000 C   0  0  0  0  0  0  0  0  0  0  0  0
   -2.8578    0.8251    0.0000 C   0  0  0  0  0  0  0  0  0  0  0  0
    2.1433   -0.4125    0.0000 C   0  0  0  0  0  0  0  0  0  0  0  0
    2.8578    1.6499    0.0000 Cl  0  0  0  0  0  0  0  0  0  0  0  0
   -5.0012   -0.4124    0.0000 O   0  0  0  0  0  0  0  0  0  0  0  0
   -1.4289   -0.8249    0.0000 Cl  0  0  0  0  0  0  0  0  0  0  0  0
    5.0011   -0.4126    0.0000 O   0  0  0  0  0  0  0  0  0  0  0  0
   -0.7143    2.8874    0.0000 C   0  0  0  0  0  0  0  0  0  0  0  0
   -0.7144    2.0625    0.0000 C   0  0  0  0  0  0  0  0  0  0  0  0
   -1.4288    3.2999    0.0000 C   0  0  0  0  0  0  0  0  0  0  0  0
   -1.4288    1.6500    0.0000 O   0  0  0  0  0  0  0  0  0  0  0  0
    0.7146    5.3623    0.0000 C   0  0  0  0  0  0  0  0  0  0  0  0
   -2.1433    2.8875    0.0000 C   0  0  0  0  0  0  0  0  0  0  0  0
    0.0001    4.1249    0.0000 C   0  0  0  0  0  0  0  0  0  0  0  0
   -2.1433    2.0625    0.0000 C   0  0  0  0  0  0  0  0  0  0  0  0
    0.7145    4.5374    0.0000 C   0  0  0  0  0  0  0  0  0  0  0  0
   -0.7143    4.5374    0.0000 O   0  0  0  0  0  0  0  0  0  0  0  0
    0.0001    5.7748    0.0000 C   0  0  0  0  0  0  0  0  0  0  0  0
    0.0000    3.2999    0.0000 O   0  0  0  0  0  0  0  0  0  0  0  0
   -0.7143    5.3624    0.0000 C   0  0  0  0  0  0  0  0  0  0  0  0
    1.5395    5.3623    0.0000 N   0  0  0  0  0  0  0  0  0  0  0  0
   -1.4288    4.1249    0.0000 O   0  0  0  0  0  0  0  0  0  0  0  0
   -2.8578    3.3000    0.0000 O   0  0  0  0  0  0  0  0  0  0  0  0
    0.0001    6.5998    0.0000 O   0  0  0  0  0  0  0  0  0  0  0  0
    1.1271    6.0768    0.0000 C   0  0  0  0  0  0  0  0  0  0  0  0
   -1.4288    5.7749    0.0000 C   0  0  0  0  0  0  0  0  0  0  0  0
    0.0000    1.6500    0.0000 O   0  0  0  0  0  0  0  0  0  0  0  0
   -2.8578    1.6500    0.0000 C   0  0  0  0  0  0  0  0  0  0  0  0
   -3.5722    2.0625    0.0000 O   0  0  0  0  0  0  0  0  0  0  0  0
   -2.8578   -0.8249    0.0000 C   0  0  0  0  0  0  0  0  0  0  0  0
    4.2867   -2.4750    0.0000 C   0  0  0  0  0  0  0  0  0  0  0  0
    0.7144   -2.8874    0.0000 N   0  0  0  0  0  0  0  0  0  0  0  0
    3.5722   -2.8874    0.0000 C   0  0  0  0  0  0  0  0  0  0  0  0
   -0.7144   -2.8874    0.0000 C   0  0  0  0  0  0  0  0  0  0  0  0
    2.8578   -2.4749    0.0000 N   0  0  0  0  0  0  0  0  0  0  0  0
   -0.0001   -2.4749    0.0000 C   0  0  0  0  0  0  0  0  0  0  0  0
    1.4289   -2.4749    0.0000 C   0  0  0  0  0  0  0  0  0  0  0  0
    2.1433   -2.8874    0.0000 C   0  0  0  0  0  0  0  0  0  0  0  0
    3.5722   -3.7124    0.0000 O   0  0  0  0  0  0  0  0  0  0  0  0
   -0.7145   -3.7123    0.0000 O   0  0  0  0  0  0  0  0  0  0  0  0
    1.4289   -1.6499    0.0000 O   0  0  0  0  0  0  0  0  0  0  0  0
    2.1433   -3.7124    0.0000 C   0  0  0  0  0  0  0  0  0  0  0  0
    1.4289   -4.1249    0.0000 C   0  0  0  0  0  0  0  0  0  0  0  0
    0.7144   -3.7124    0.0000 N   0  0  0  0  0  0  0  0  0  0  0  0
    1.4289   -4.9498    0.0000 O   0  0  0  0  0  0  0  0  0  0  0  0
    5.0011   -2.8875    0.0000 N   0  0  0  0  0  0  0  0  0  0  0  0
    5.7156   -2.4750    0.0000 C   0  0  0  0  0  0  0  0  0  0  0  0
    6.4300   -2.8875    0.0000 C   0  0  0  0  0  0  0  0  0  0  0  0
    5.7156   -1.6500    0.0000 O   0  0  0  0  0  0  0  0  0  0  0  0
    7.1444   -2.4750    0.0000 C   0  0  0  0  0  0  0  0  0  0  0  0
    6.4300   -3.7125    0.0000 N   0  0  0  0  0  0  0  0  0  0  0  0
    7.8589   -2.8875    0.0000 C   0  0  0  0  0  0  0  0  0  0  0  0
    7.1444   -4.1250    0.0000 C   0  0  0  0  0  0  0  0  0  0  0  0
    7.8589   -3.7125    0.0000 C   0  0  0  0  0  0  0  0  0  0  0  0
    8.5734   -2.4751    0.0000 C   0  0  0  0  0  0  0  0  0  0  0  0
   -4.2867   -2.4748    0.0000 C   0  0  0  0  0  0  0  0  0  0  0  0
   -1.4289   -2.4749    0.0000 N   0  0  0  0  0  0  0  0  0  0  0  0
   -2.1434   -2.8873    0.0000 C   0  0  0  0  0  0  0  0  0  0  0  0
   -5.7156   -2.4748    0.0000 O   0  0  0  0  0  0  0  0  0  0  0  0
   -3.5723   -2.8873    0.0000 N   0  0  0  0  0  0  0  0  0  0  0  0
   -2.8579   -2.4748    0.0000 C   0  0  0  0  0  0  0  0  0  0  0  0
   -2.8579   -1.6499    0.0000 O   0  0  0  0  0  0  0  0  0  0  0  0
   -6.4302   -3.7123    0.0000 C   0  0  0  0  0  0  0  0  0  0  0  0
   -6.4302   -2.8873    0.0000 O   0  0  0  0  0  0  0  0  0  0  0  0
   -7.1446   -4.1249    0.0000 O   0  0  0  0  0  0  0  0  0  0  0  0
   -5.7157   -4.1248    0.0000 C   0  0  0  0  0  0  0  0  0  0  0  0
   -5.0012   -3.7123    0.0000 N   0  0  0  0  0  0  0  0  0  0  0  0
   -5.0012   -2.8873    0.0000 C   0  0  0  0  0  0  0  0  0  0  0  0
   -2.8692   -5.3741    0.0000 C   0  0  0  0  0  0  0  0  0  0  0  0
   -2.1548   -5.7866    0.0000 C   0  0  0  0  0  0  0  0  0  0  0  0
   -2.1547   -4.1367    0.0000 C   0  0  0  0  0  0  0  0  0  0  0  0
   -2.8692   -4.5492    0.0000 C   0  0  0  0  0  0  0  0  0  0  0  0
   -1.4403   -5.3742    0.0000 C   0  0  0  0  0  0  0  0  0  0  0  0
   -1.4403   -4.5492    0.0000 C   0  0  0  0  0  0  0  0  0  0  0  0
   -2.1548   -6.6117    0.0000 O   0  0  0  0  0  0  0  0  0  0  0  0
   -5.7157   -4.9498    0.0000 C   0  0  0  0  0  0  0  0  0  0  0  0
   -6.4301   -5.3623    0.0000 C   0  0  0  0  0  0  0  0  0  0  0  0
   -5.7157   -6.5998    0.0000 C   0  0  0  0  0  0  0  0  0  0  0  0
   -5.0012   -5.3623    0.0000 C   0  0  0  0  0  0  0  0  0  0  0  0
   -6.4301   -6.1873    0.0000 C   0  0  0  0  0  0  0  0  0  0  0  0
   -7.1446   -6.5998    0.0000 O   0  0  0  0  0  0  0  0  0  0  0  0
   -5.0012   -6.1873    0.0000 C   0  0  0  0  0  0  0  0  0  0  0  0
   -4.2867   -6.5998    0.0000 O   0  0  0  0  0  0  0  0  0  0  0  0
    0.0000    0.0000    0.0000 H   0  0  0  0  0  0  0  0  0  0  0  0
    0.0000    0.0000    0.0000 H   0  0  0  0  0  0  0  0  0  0  0  0
    0.0000    0.0000    0.0000 H   0  0  0  0  0  0  0  0  0  0  0  0
    0.0000    0.0000    0.0000 H   0  0  0  0  0  0  0  0  0  0  0  0
    0.0000    0.0000    0.0000 H   0  0  0  0  0  0  0  0  0  0  0  0
    0.0000    0.0000    0.0000 H   0  0  0  0  0  0  0  0  0  0  0  0
    0.0000    0.0000    0.0000 H   0  0  0  0  0  0  0  0  0  0  0  0
    0.0000    0.0000    0.0000 H   0  0  0  0  0  0  0  0  0  0  0  0
    0.0000    0.0000    0.0000 H   0  0  0  0  0  0  0  0  0  0  0  0
    0.0000    0.0000    0.0000 H   0  0  0  0  0  0  0  0  0  0  0  0
    0.0000    0.0000    0.0000 H   0  0  0  0  0  0  0  0  0  0  0  0
    0.0000    0.0000    0.0000 H   0  0  0  0  0  0  0  0  0  0  0  0
    0.0000    0.0000    0.0000 H   0  0  0  0  0  0  0  0  0  0  0  0
    0.0000    0.0000    0.0000 H   0  0  0  0  0  0  0  0  0  0  0  0
    0.0000    0.0000    0.0000 H   0  0  0  0  0  0  0  0  0  0  0  0
    0.0000    0.0000    0.0000 H   0  0  0  0  0  0  0  0  0  0  0  0
    0.0000    0.0000    0.0000 H   0  0  0  0  0  0  0  0  0  0  0  0
    0.0000    0.0000    0.0000 H   0  0  0  0  0  0  0  0  0  0  0  0
    0.0000    0.0000    0.0000 H   0  0  0  0  0  0  0  0  0  0  0  0
    0.0000    0.0000    0.0000 H   0  0  0  0  0  0  0  0  0  0  0  0
    0.0000    0.0000    0.0000 H   0  0  0  0  0  0  0  0  0  0  0  0
    0.0000    0.0000    0.0000 H   0  0  0  0  0  0  0  0  0  0  0  0
    0.0000    0.0000    0.0000 H   0  0  0  0  0  0  0  0  0  0  0  0
    0.0000    0.0000    0.0000 H   0  0  0  0  0  0  0  0  0  0  0  0
    0.0000    0.0000    0.0000 H   0  0  0  0  0  0  0  0  0  0  0  0
    0.0000    0.0000    0.0000 H   0  0  0  0  0  0  0  0  0  0  0  0
    0.0000    0.0000    0.0000 H   0  0  0  0  0  0  0  0  0  0  0  0
    0.0000    0.0000    0.0000 H   0  0  0  0  0  0  0  0  0  0  0  0
    0.0000    0.0000    0.0000 H   0  0  0  0  0  0  0  0  0  0  0  0
    0.0000    0.0000    0.0000 H   0  0  0  0  0  0  0  0  0  0  0  0
    0.0000    0.0000    0.0000 H   0  0  0  0  0  0  0  0  0  0  0  0
    0.0000    0.0000    0.0000 H   0  0  0  0  0  0  0  0  0  0  0  0
    0.0000    0.0000    0.0000 H   0  0  0  0  0  0  0  0  0  0  0  0
    0.0000    0.0000    0.0000 H   0  0  0  0  0  0  0  0  0  0  0  0
    0.0000    0.0000    0.0000 H   0  0  0  0  0  0  0  0  0  0  0  0
    0.0000    0.0000    0.0000 H   0  0  0  0  0  0  0  0  0  0  0  0
    0.0000    0.0000    0.0000 H   0  0  0  0  0  0  0  0  0  0  0  0
    0.0000    0.0000    0.0000 H   0  0  0  0  0  0  0  0  0  0  0  0
    0.0000    0.0000    0.0000 H   0  0  0  0  0  0  0  0  0  0  0  0
    0.0000    0.0000    0.0000 H   0  0  0  0  0  0  0  0  0  0  0  0
    0.0000    0.0000    0.0000 H   0  0  0  0  0  0  0  0  0  0  0  0
    0.0000    0.0000    0.0000 H   0  0  0  0  0  0  0  0  0  0  0  0
    0.0000    0.0000    0.0000 H   0  0  0  0  0  0  0  0  0  0  0  0
    0.0000    0.0000    0.0000 H   0  0  0  0  0  0  0  0  0  0  0  0
    0.0000    0.0000    0.0000 H   0  0  0  0  0  0  0  0  0  0  0  0
    0.0000    0.0000    0.0000 H   0  0  0  0  0  0  0  0  0  0  0  0
    0.0000    0.0000    0.0000 H   0  0  0  0  0  0  0  0  0  0  0  0
    0.0000    0.0000    0.0000 H   0  0  0  0  0  0  0  0  0  0  0  0
    0.0000    0.0000    0.0000 H   0  0  0  0  0  0  0  0  0  0  0  0
    0.0000    0.0000    0.0000 H   0  0  0  0  0  0  0  0  0  0  0  0
    0.0000    0.0000    0.0000 H   0  0  0  0  0  0  0  0  0  0  0  0
    0.0000    0.0000    0.0000 H   0  0  0  0  0  0  0  0  0  0  0  0
    0.0000    0.0000    0.0000 H   0  0  0  0  0  0  0  0  0  0  0  0
    0.0000    0.0000    0.0000 H   0  0  0  0  0  0  0  0  0  0  0  0
    0.0000    0.0000    0.0000 H   0  0  0  0  0  0  0  0  0  0  0  0
    0.0000    0.0000    0.0000 H   0  0  0  0  0  0  0  0  0  0  0  0
    0.0000    0.0000    0.0000 H   0  0  0  0  0  0  0  0  0  0  0  0
    0.0000    0.0000    0.0000 H   0  0  0  0  0  0  0  0  0  0  0  0
    0.0000    0.0000    0.0000 H   0  0  0  0  0  0  0  0  0  0  0  0
    0.0000    0.0000    0.0000 H   0  0  0  0  0  0  0  0  0  0  0  0
    0.0000    0.0000    0.0000 H   0  0  0  0  0  0  0  0  0  0  0  0
    0.0000    0.0000    0.0000 H   0  0  0  0  0  0  0  0  0  0  0  0
    0.0000    0.0000    0.0000 H   0  0  0  0  0  0  0  0  0  0  0  0
    0.0000    0.0000    0.0000 H   0  0  0  0  0  0  0  0  0  0  0  0
    0.0000    0.0000    0.0000 H   0  0  0  0  0  0  0  0  0  0  0  0
    0.0000    0.0000    0.0000 H   0  0  0  0  0  0  0  0  0  0  0  0
    0.0000    0.0000    0.0000 H   0  0  0  0  0  0  0  0  0  0  0  0
    0.0000    0.0000    0.0000 H   0  0  0  0  0  0  0  0  0  0  0  0
    0.0000    0.0000    0.0000 H   0  0  0  0  0  0  0  0  0  0  0  0
    0.0000    0.0000    0.0000 H   0  0  0  0  0  0  0  0  0  0  0  0
    0.0000    0.0000    0.0000 H   0  0  0  0  0  0  0  0  0  0  0  0
    0.0000    0.0000    0.0000 H   0  0  0  0  0  0  0  0  0  0  0  0
    0.0000    0.0000    0.0000 H   0  0  0  0  0  0  0  0  0  0  0  0
    0.0000    0.0000    0.0000 H   0  0  0  0  0  0  0  0  0  0  0  0
    0.0000    0.0000    0.0000 H   0  0  0  0  0  0  0  0  0  0  0  0
 45  1  1  0
  2  1  1  0
  7  2  1  0
  3  1  2  0
  8  3  1  0
  4 54  1  0
  5  4  2  0
  5  3  1  0
  6  2  2  0
  6  4  1  0
 14  7  1  0
 13  8  1  0
 11  9  1  0
  9 23  1  1
  9 74  1  0
 10 25  1  6
 12 10  1  0
 10 49  1  0
 48 11  1  0
 19 11  2  0
 18 12  1  0
 17 12  2  0
 20 13  2  0
 15 13  1  0
 16 14  2  0
 21 14  1  0
 48 15  2  0
 24 15  1  0
 17 16  1  0
 22 16  1  0
 21 18  2  0
 20 19  1  0
 27 26  1  0
 28 26  1  0
 26 37  1  1
 27 45  1  6
 29 27  1  0
 28 40  1  1
 31 28  1  0
 33 29  1  0
 34 30  1  0
 30 39  1  1
 30 43  1  0
 36 30  1  0
 33 31  1  0
 31 41  1  6
 32 37  1  6
 34 32  1  0
 35 32  1  0
 33 46  1  6
 38 35  1  0
 38 36  1  0
 36 42  1  6
 38 44  1  6
 46 47  1  0
 51 49  1  0
 49 64  1  6
 52 75  1  0
 54 50  1  0
 55 50  1  0
 53 51  1  0
 57 51  2  0
 54 52  1  0
 58 52  2  0
 56 53  1  0
 56 55  1  0
 59 55  2  0
 56 60  1  6
 60 61  1  0
 61 63  2  0
 61 62  1  0
 65 64  1  0
 66 65  1  1
 67 65  2  0
 68 66  1  0
 66 69  1  0
 70 68  1  0
 71 69  1  0
 72 70  1  0
 73 70  1  0
 92 89  2  0
 76 89  1  0
 76 75  1  0
 74 78  1  0
 79 78  1  0
 76 79  1  0
 79 80  2  0
 81 82  2  0
 81 83  1  0
 84 81  1  1
 84 94  1  0
 84 85  1  0
 86 74  1  0
 77 86  2  0
 86 85  1  0
 88 87  1  0
 89 90  1  0
 90 87  2  0
 91 92  1  0
 91 88  2  0
 93 88  1  0
 94 95  1  0
 94 97  2  0
 95 98  2  0
 98 96  1  0
 96100  2  0
100 97  1  0
 98 99  1  0
100101  1  0
 97 87  1  0
  5102  1  0
  6103  1  0
  9104  1  0
 10105  1  0
 17106  1  0
 18107  1  0
 19108  1  0
 20109  1  0
 21110  1  0
 23111  1  0
 25112  1  0
 26113  1  0
 27114  1  0
 28115  1  0
 31116  1  0
 32117  1  0
 33118  1  0
 34119  1  0
 34120  1  0
 36121  1  0
 38122  1  0
 39123  1  0
 39124  1  0
 40125  1  0
 41126  1  0
 42127  1  0
 43128  1  0
 43129  1  0
 43130  1  0
 44131  1  0
 44132  1  0
 44133  1  0
 46134  1  0
 46135  1  0
 47136  1  0
 48137  1  0
 49138  1  0
 50139  1  0
 53140  1  0
 54141  1  6
 56142  1  0
 60143  1  0
 60144  1  0
 62145  1  0
 62146  1  0
 64147  1  0
 66148  1  0
 68149  1  0
 68150  1  0
 69151  1  0
 70152  1  0
 71153  1  0
 71154  1  0
 71155  1  0
 72156  1  0
 72157  1  0
 72158  1  0
 73159  1  0
 73160  1  0
 73161  1  0
 74162  1  1
 75163  1  0
 76164  1  1
 78165  1  0
 83166  1  0
 84167  1  0
 85168  1  0
 90169  1  0
 91170  1  0
 92171  1  0
 93172  1  0
 95173  1  0
 96174  1  0
 99175  1  0
101176  1  0
M  END
>  <ALOGPS_LOGP>  (1) 
1.11

>  <ALOGPS_LOGS>  (1) 
-3.81

>  <ALOGPS_SOLUBILITY>  (1) 
2.25e-01 g/l

>  <DATABASE_ID>  (1) 
DB00512

>  <DATABASE_NAME>  (1) 
drugbank

>  <DRUGBANK_ID>  (1) 
DB00512

>  <DRUG_GROUPS>  (1) 
approved

>  <EXACT_MASS>  (1) 
1447.430199787

>  <FORMULA>  (1) 
C66H75Cl2N9O24

>  <GENERIC_NAME>  (1) 
Vancomycin

>  <INCHI_IDENTIFIER>  (1) 
InChI=1S/C66H75Cl2N9O24/c1-23(2)12-34(71-5)58(88)76-49-51(83)26-7-10-38(32(67)14-26)97-40-16-28-17-41(55(40)101-65-56(54(86)53(85)42(22-78)99-65)100-44-21-66(4,70)57(87)24(3)96-44)98-39-11-8-27(15-33(39)68)52(84)50-63(93)75-48(64(94)95)31-18-29(79)19-37(81)45(31)30-13-25(6-9-36(30)80)46(60(90)77-50)74-61(91)47(28)73-59(89)35(20-43(69)82)72-62(49)92/h6-11,13-19,23-24,34-35,42,44,46-54,56-57,65,71,78-81,83-87H,12,20-22,70H2,1-5H3,(H2,69,82)(H,72,92)(H,73,89)(H,74,91)(H,75,93)(H,76,88)(H,77,90)(H,94,95)/t24-,34+,35-,42+,44-,46+,47+,48-,49+,50-,51+,52+,53+,54-,56+,57+,65-,66-/m0/s1

>  <INCHI_KEY>  (1) 
MYPYJXKWCTUITO-LYRMYLQWSA-N

>  <INTERNATIONAL_BRANDS>  (1) 
COVANC; Vancoled

>  <JCHEM_ACCEPTOR_COUNT>  (1) 
24

>  <JCHEM_AVERAGE_POLARIZABILITY>  (1) 
138.70367349710648

>  <JCHEM_BIOAVAILABILITY>  (1) 
0

>  <JCHEM_DONOR_COUNT>  (1) 
19

>  <JCHEM_FORMAL_CHARGE>  (1) 
0

>  <JCHEM_GHOSE_FILTER>  (1) 
0

>  <JCHEM_IUPAC>  (1) 
(1S,2R,18R,19R,22S,25R,28R,40S)-48-{[(2S,3R,4S,5S,6R)-3-{[(2S,4S,5S,6S)-4-amino-5-hydroxy-4,6-dimethyloxan-2-yl]oxy}-4,5-dihydroxy-6-(hydroxymethyl)oxan-2-yl]oxy}-22-(carbamoylmethyl)-5,47-dichloro-2,18,32,35,37-pentahydroxy-19-[(2R)-4-methyl-2-(methylamino)pentanamido]-20,23,26,42,44-pentaoxo-7,13-dioxa-21,24,27,41,43-pentaazaoctacyclo[26.14.2.2³,⁶.2¹⁴,¹⁷.1⁸,¹².1²⁹,³³.0¹⁰,²⁵.0³⁴,³⁹]pentaconta-3,5,8,10,12(48),14,16,29(45),30,32,34,36,38,46,49-pentadecaene-40-carboxylic acid

>  <JCHEM_LOGP>  (1) 
-4.406617998279438

>  <JCHEM_MDDR_LIKE_RULE>  (1) 
1

>  <JCHEM_NUMBER_OF_RINGS>  (1) 
10

>  <JCHEM_PHYSIOLOGICAL_CHARGE>  (1) 
1

>  <JCHEM_PKA>  (1) 
8.778299846090947

>  <JCHEM_PKA_STRONGEST_ACIDIC>  (1) 
2.9872115281287916

>  <JCHEM_PKA_STRONGEST_BASIC>  (1) 
9.933023534994085

>  <JCHEM_POLAR_SURFACE_AREA>  (1) 
530.4899999999998

>  <JCHEM_REFRACTIVITY>  (1) 
346.6085000000003

>  <JCHEM_ROTATABLE_BOND_COUNT>  (1) 
13

>  <JCHEM_RULE_OF_FIVE>  (1) 
0

>  <JCHEM_TRADITIONAL_IUPAC>  (1) 
vancomycin

>  <JCHEM_VEBER_RULE>  (1) 
0

>  <MOLECULAR_WEIGHT>  (1) 
1449.254

>  <PRODUCTS>  (1) 
Jamp-vancomycin; Mylan-vancomycin Hydrochloride for Injection, USP; PMS-vancomycin; PMS-vancomycin 1 G; PMS-vancomycin 500 mg; Sterile Vancomycin HCl 5.0gm/vial; Sterile Vancomycin HCl USP 1.0gm/vial; Sterile Vancomycin HCl USP 500mg/vial; Sterile Vancomycin Hydrochloride; Sterile Vancomycin Hydrochloride, USP; Val-vancomycin; Vancocin; Vancocin Cp Add-vantage Inj 500mg/vial; Vancocin Inj 1gm/vial Advantage; Vancomycin; Vancomycin HCl; Vancomycin Hydrochloride; Vancomycin Hydrochloride Capsules, USP; Vancomycin Hydrochloride for Injection; Vancomycin Hydrochloride for Injection USP; Vancomycin Hydrochloride for Injection, USP; Vancomycin Hydrocloride; Vancomycin hydrochloride

>  <SALTS>  (1) 
Vancomycin Hydrochloride

>  <SECONDARY_ACCESSION_NUMBERS>  (1) 
APRD01287; EXPT03217

>  <SMILES>  (1) 
CN[C@H](CC(C)C)C(=O)N[C@@H]1[C@H](O)C2=CC=C(OC3=C(O[C@@H]4O[C@H](CO)[C@@H](O)[C@H](O)[C@H]4O[C@H]4C[C@](C)(N)[C@H](O)[C@H](C)O4)C4=CC(=C3)[C@@H](NC(=O)[C@H](CC(N)=O)NC1=O)C(=O)N[C@@H]1C3=CC(=C(O)C=C3)C3=C(O)C=C(O)C=C3[C@H](NC(=O)[C@@H](NC1=O)[C@H](O)C1=CC(Cl)=C(O4)C=C1)C(O)=O)C(Cl)=C2

$$$$
