810
     RDKit          2D

 52 55  0  0  1  0  0  0  0  0999 V2000
    6.1299    0.0101    0.0000 O   0  0  0  0  0  0  0  0  0  0  0  0
    3.2719   -0.8149    0.0000 N   0  0  0  0  0  0  0  0  0  0  0  0
    5.0029    0.3122    0.0000 C   0  0  0  0  0  0  0  0  0  0  0  0
    3.4916    0.9382    0.0000 C   0  0  0  0  0  0  0  0  0  0  0  0
    3.7051    1.7351    0.0000 C   0  0  0  0  0  0  0  0  0  0  0  0
    5.2164    1.1091    0.0000 C   0  0  0  0  0  0  0  0  0  0  0  0
    3.0974    2.5458    0.0000 C   0  0  0  0  0  0  0  0  0  0  0  0
    5.4154   -0.4024    0.0000 C   0  0  0  0  0  0  0  0  0  0  0  0
    2.0625    0.1132    0.0000 C   0  0  0  0  0  0  0  0  0  0  0  0
    1.6500    0.8277    0.0000 C   0  0  0  0  0  0  0  0  0  0  0  0
    4.7010   -0.8149    0.0000 C   0  0  0  0  0  0  0  0  0  0  0  0
    5.8279   -1.1168    0.0000 C   0  0  0  0  0  0  0  0  0  0  0  0
    3.9865   -0.4024    0.0000 C   0  0  0  0  0  0  0  0  0  0  0  0
    6.6529   -1.1168    0.0000 C   0  0  0  0  0  0  0  0  0  0  0  0
    5.4154   -1.8313    0.0000 C   0  0  0  0  0  0  0  0  0  0  0  0
    2.5575   -0.4024    0.0000 C   0  0  0  0  0  0  0  0  0  0  0  0
    3.2719   -1.6399    0.0000 C   0  0  0  0  0  0  0  0  0  0  0  0
    1.8430   -0.8149    0.0000 C   0  0  0  0  0  0  0  0  0  0  0  0
    2.5575   -2.0524    0.0000 C   0  0  0  0  0  0  0  0  0  0  0  0
    1.8430   -1.6399    0.0000 C   0  0  0  0  0  0  0  0  0  0  0  0
    7.0655   -1.8313    0.0000 C   0  0  0  0  0  0  0  0  0  0  0  0
    5.8279   -2.5458    0.0000 C   0  0  0  0  0  0  0  0  0  0  0  0
    6.6529   -2.5458    0.0000 C   0  0  0  0  0  0  0  0  0  0  0  0
    0.0000    0.0000    0.0000 H   0  0  0  0  0  0  0  0  0  0  0  0
    0.0000    0.0000    0.0000 H   0  0  0  0  0  0  0  0  0  0  0  0
    0.0000    0.0000    0.0000 H   0  0  0  0  0  0  0  0  0  0  0  0
    0.0000    0.0000    0.0000 H   0  0  0  0  0  0  0  0  0  0  0  0
    0.0000    0.0000    0.0000 H   0  0  0  0  0  0  0  0  0  0  0  0
    0.0000    0.0000    0.0000 H   0  0  0  0  0  0  0  0  0  0  0  0
    0.0000    0.0000    0.0000 H   0  0  0  0  0  0  0  0  0  0  0  0
    0.0000    0.0000    0.0000 H   0  0  0  0  0  0  0  0  0  0  0  0
    0.0000    0.0000    0.0000 H   0  0  0  0  0  0  0  0  0  0  0  0
    0.0000    0.0000    0.0000 H   0  0  0  0  0  0  0  0  0  0  0  0
    0.0000    0.0000    0.0000 H   0  0  0  0  0  0  0  0  0  0  0  0
    0.0000    0.0000    0.0000 H   0  0  0  0  0  0  0  0  0  0  0  0
    0.0000    0.0000    0.0000 H   0  0  0  0  0  0  0  0  0  0  0  0
    0.0000    0.0000    0.0000 H   0  0  0  0  0  0  0  0  0  0  0  0
    0.0000    0.0000    0.0000 H   0  0  0  0  0  0  0  0  0  0  0  0
    0.0000    0.0000    0.0000 H   0  0  0  0  0  0  0  0  0  0  0  0
    0.0000    0.0000    0.0000 H   0  0  0  0  0  0  0  0  0  0  0  0
    0.0000    0.0000    0.0000 H   0  0  0  0  0  0  0  0  0  0  0  0
    0.0000    0.0000    0.0000 H   0  0  0  0  0  0  0  0  0  0  0  0
    0.0000    0.0000    0.0000 H   0  0  0  0  0  0  0  0  0  0  0  0
    0.0000    0.0000    0.0000 H   0  0  0  0  0  0  0  0  0  0  0  0
    0.0000    0.0000    0.0000 H   0  0  0  0  0  0  0  0  0  0  0  0
    0.0000    0.0000    0.0000 H   0  0  0  0  0  0  0  0  0  0  0  0
    0.0000    0.0000    0.0000 H   0  0  0  0  0  0  0  0  0  0  0  0
    0.0000    0.0000    0.0000 H   0  0  0  0  0  0  0  0  0  0  0  0
    0.0000    0.0000    0.0000 H   0  0  0  0  0  0  0  0  0  0  0  0
    0.0000    0.0000    0.0000 H   0  0  0  0  0  0  0  0  0  0  0  0
    0.0000    0.0000    0.0000 H   0  0  0  0  0  0  0  0  0  0  0  0
    0.0000    0.0000    0.0000 H   0  0  0  0  0  0  0  0  0  0  0  0
  1  8  1  0
  2 13  1  0
  2 16  1  0
  2 17  1  0
  3  4  1  0
  3  6  1  0
  3  8  1  0
  4  7  1  0
  4  9  1  0
  5  6  1  0
  5  7  1  0
  5 10  1  0
  8 11  1  0
  8 12  1  0
  9 10  2  0
 11 13  1  0
 12 14  2  0
 12 15  1  0
 14 21  1  0
 15 22  2  0
 16 18  1  0
 17 19  1  0
 18 20  1  0
 19 20  1  0
 21 23  2  0
 22 23  1  0
  1 24  1  0
  3 25  1  0
  4 26  1  0
  5 27  1  0
  6 28  1  0
  6 29  1  0
  7 30  1  0
  7 31  1  0
  9 32  1  0
 10 33  1  0
 11 34  1  0
 11 35  1  0
 13 36  1  0
 13 37  1  0
 14 38  1  0
 15 39  1  0
 16 40  1  0
 16 41  1  0
 17 42  1  0
 17 43  1  0
 18 44  1  0
 18 45  1  0
 19 46  1  0
 19 47  1  0
 20 48  1  0
 20 49  1  0
 21 50  1  0
 22 51  1  0
 23 52  1  0
M  END
>  <ALOGPS_LOGP>  (1) 
4.28

>  <ALOGPS_LOGS>  (1) 
-4.86

>  <ALOGPS_SOLUBILITY>  (1) 
4.26e-03 g/l

>  <DATABASE_ID>  (1) 
DB00810

>  <DATABASE_NAME>  (1) 
drugbank

>  <DRUGBANK_ID>  (1) 
DB00810

>  <DRUG_GROUPS>  (1) 
approved; investigational

>  <EXACT_MASS>  (1) 
311.224914555

>  <FORMULA>  (1) 
C21H29NO

>  <GENERIC_NAME>  (1) 
Biperiden

>  <INCHI_IDENTIFIER>  (1) 
InChI=1S/C21H29NO/c23-21(19-7-3-1-4-8-19,11-14-22-12-5-2-6-13-22)20-16-17-9-10-18(20)15-17/h1,3-4,7-10,17-18,20,23H,2,5-6,11-16H2

>  <INCHI_KEY>  (1) 
YSXKPIUOCJLQIE-UHFFFAOYSA-N

>  <INTERNATIONAL_BRANDS>  (1) 
Akineton; Bilino; Ipsatol

>  <JCHEM_ACCEPTOR_COUNT>  (1) 
2

>  <JCHEM_AVERAGE_POLARIZABILITY>  (1) 
36.74329708560114

>  <JCHEM_BIOAVAILABILITY>  (1) 
1

>  <JCHEM_DONOR_COUNT>  (1) 
1

>  <JCHEM_FORMAL_CHARGE>  (1) 
0

>  <JCHEM_GHOSE_FILTER>  (1) 
1

>  <JCHEM_IUPAC>  (1) 
1-{bicyclo[2.2.1]hept-5-en-2-yl}-1-phenyl-3-(piperidin-1-yl)propan-1-ol

>  <JCHEM_LOGP>  (1) 
3.5365074619999994

>  <JCHEM_MDDR_LIKE_RULE>  (1) 
0

>  <JCHEM_NUMBER_OF_RINGS>  (1) 
4

>  <JCHEM_PHYSIOLOGICAL_CHARGE>  (1) 
1

>  <JCHEM_PKA_STRONGEST_ACIDIC>  (1) 
13.820096784776485

>  <JCHEM_PKA_STRONGEST_BASIC>  (1) 
9.297995719799305

>  <JCHEM_POLAR_SURFACE_AREA>  (1) 
23.47

>  <JCHEM_REFRACTIVITY>  (1) 
97.0158

>  <JCHEM_ROTATABLE_BOND_COUNT>  (1) 
5

>  <JCHEM_RULE_OF_FIVE>  (1) 
1

>  <JCHEM_TRADITIONAL_IUPAC>  (1) 
biperiden

>  <JCHEM_VEBER_RULE>  (1) 
1

>  <MOLECULAR_WEIGHT>  (1) 
311.4611

>  <PRODUCTS>  (1) 
Akineton Tab 2mg

>  <SALTS>  (1) 
Biperiden hydrochloride; Biperiden lactate

>  <SECONDARY_ACCESSION_NUMBERS>  (1) 
APRD00725

>  <SMILES>  (1) 
OC(CCN1CCCCC1)(C1CC2CC1C=C2)C1=CC=CC=C1

>  <SYNONYMS>  (1) 
Biperidene; Biperideno; Biperidenum

$$$$
