
     RDKit          2D

 35 36  0  0  1  0  0  0  0  0999 V2000
    1.3047    0.3228    0.0000 C   0  0  0  0  0  0  0  0  0  0  0  0
    1.3047   -0.5022    0.0000 C   0  0  0  0  0  0  0  0  0  0  0  0
    0.5902   -0.9147    0.0000 C   0  0  0  0  0  0  0  0  0  0  0  0
   -0.1243   -0.5022    0.0000 C   0  0  0  0  0  0  0  0  0  0  0  0
   -0.1243    0.3228    0.0000 C   0  0  0  0  0  0  0  0  0  0  0  0
    0.5902    0.7353    0.0000 C   0  0  0  0  0  0  0  0  0  0  0  0
    3.4481    0.7353    0.0000 C   0  0  0  0  0  0  0  0  0  0  0  0
    3.4481    1.5603    0.0000 O   0  0  0  0  0  0  0  0  0  0  0  0
    2.7336    0.3228    0.0000 C   0  0  0  0  0  0  0  0  0  0  0  0
    2.0192    0.7353    0.0000 C   0  0  0  0  0  0  0  0  0  0  0  0
    2.7336   -0.5022    0.0000 N   0  0  0  0  0  0  0  0  0  0  0  0
    4.1626    0.3228    0.0000 O   0  0  0  0  0  0  0  0  0  0  0  0
    0.5902   -1.7397    0.0000 I   0  0  0  0  0  0  0  0  0  0  0  0
   -0.8387   -0.9147    0.0000 O   0  0  0  0  0  0  0  0  0  0  0  0
   -3.6966    0.7353    0.0000 O   0  0  0  0  0  0  0  0  0  0  0  0
   -3.6966   -0.9147    0.0000 I   0  0  0  0  0  0  0  0  0  0  0  0
   -1.5532   -0.5022    0.0000 C   0  0  0  0  0  0  0  0  0  0  0  0
   -2.9821   -0.5022    0.0000 C   0  0  0  0  0  0  0  0  0  0  0  0
   -2.2677   -0.9147    0.0000 C   0  0  0  0  0  0  0  0  0  0  0  0
   -1.5532    0.3228    0.0000 C   0  0  0  0  0  0  0  0  0  0  0  0
   -2.9821    0.3228    0.0000 C   0  0  0  0  0  0  0  0  0  0  0  0
   -0.8387    0.7353    0.0000 I   0  0  0  0  0  0  0  0  0  0  0  0
   -2.2677    0.7353    0.0000 C   0  0  0  0  0  0  0  0  0  0  0  0
   -2.2677    1.5603    0.0000 I   0  0  0  0  0  0  0  0  0  0  0  0
    0.0000    0.0000    0.0000 H   0  0  0  0  0  0  0  0  0  0  0  0
    0.0000    0.0000    0.0000 H   0  0  0  0  0  0  0  0  0  0  0  0
    0.0000    0.0000    0.0000 H   0  0  0  0  0  0  0  0  0  0  0  0
    0.0000    0.0000    0.0000 H   0  0  0  0  0  0  0  0  0  0  0  0
    0.0000    0.0000    0.0000 H   0  0  0  0  0  0  0  0  0  0  0  0
    0.0000    0.0000    0.0000 H   0  0  0  0  0  0  0  0  0  0  0  0
    0.0000    0.0000    0.0000 H   0  0  0  0  0  0  0  0  0  0  0  0
    0.0000    0.0000    0.0000 H   0  0  0  0  0  0  0  0  0  0  0  0
    0.0000    0.0000    0.0000 H   0  0  0  0  0  0  0  0  0  0  0  0
    0.0000    0.0000    0.0000 H   0  0  0  0  0  0  0  0  0  0  0  0
    0.0000    0.0000    0.0000 H   0  0  0  0  0  0  0  0  0  0  0  0
  9  7  1  1
  8  7  2  0
 12  7  1  0
 10  9  1  0
  9 11  1  0
  1 10  1  0
  4 14  1  0
  2  1  2  0
  6  1  1  0
  5  4  1  0
  3  4  2  0
  3  2  1  0
  5  6  2  0
 13  3  1  0
 14 17  1  0
 21 15  1  0
 18 16  1  0
 19 17  1  0
 18 19  2  0
 17 20  2  0
 20 23  1  0
 23 21  2  0
 18 21  1  0
  5 22  1  0
 23 24  1  0
  2 25  1  0
  6 26  1  0
  9 27  1  0
 10 28  1  0
 10 29  1  0
 11 30  1  0
 11 31  1  0
 12 32  1  0
 15 33  1  0
 19 34  1  0
 20 35  1  0
M  END
>  <ALOGPS_LOGP>  (1) 
1.15

>  <ALOGPS_LOGS>  (1) 
-4.94

>  <ALOGPS_SOLUBILITY>  (1) 
8.98e-03 g/l

>  <DATABASE_ID>  (1) 
DB00509

>  <DATABASE_NAME>  (1) 
drugbank

>  <DRUGBANK_ID>  (1) 
DB00509

>  <DRUG_GROUPS>  (1) 
approved; investigational

>  <EXACT_MASS>  (1) 
776.686681525

>  <FORMULA>  (1) 
C15H11I4NO4

>  <GENERIC_NAME>  (1) 
Dextrothyroxine

>  <INCHI_IDENTIFIER>  (1) 
InChI=1S/C15H11I4NO4/c16-8-4-7(5-9(17)13(8)21)24-14-10(18)1-6(2-11(14)19)3-12(20)15(22)23/h1-2,4-5,12,21H,3,20H2,(H,22,23)/t12-/m1/s1

>  <INCHI_KEY>  (1) 
XUIIKFGFIJCVMT-GFCCVEGCSA-N

>  <INTERNATIONAL_BRANDS>  (1) 
Choloxin; Dynothel; Eulipos; Lisolipin

>  <JCHEM_ACCEPTOR_COUNT>  (1) 
4

>  <JCHEM_AVERAGE_POLARIZABILITY>  (1) 
49.311808389762874

>  <JCHEM_BIOAVAILABILITY>  (1) 
1

>  <JCHEM_DONOR_COUNT>  (1) 
3

>  <JCHEM_FORMAL_CHARGE>  (1) 
0

>  <JCHEM_GHOSE_FILTER>  (1) 
0

>  <JCHEM_IUPAC>  (1) 
(2R)-2-amino-3-[4-(4-hydroxy-3,5-diiodophenoxy)-3,5-diiodophenyl]propanoic acid

>  <JCHEM_LOGP>  (1) 
3.727307065150786

>  <JCHEM_MDDR_LIKE_RULE>  (1) 
0

>  <JCHEM_NUMBER_OF_RINGS>  (1) 
2

>  <JCHEM_PHYSIOLOGICAL_CHARGE>  (1) 
0

>  <JCHEM_PKA>  (1) 
7.426761076903324

>  <JCHEM_PKA_STRONGEST_ACIDIC>  (1) 
0.2733674568179616

>  <JCHEM_PKA_STRONGEST_BASIC>  (1) 
9.433364269994815

>  <JCHEM_POLAR_SURFACE_AREA>  (1) 
92.78000000000002

>  <JCHEM_REFRACTIVITY>  (1) 
126.788

>  <JCHEM_ROTATABLE_BOND_COUNT>  (1) 
5

>  <JCHEM_RULE_OF_FIVE>  (1) 
0

>  <JCHEM_TRADITIONAL_IUPAC>  (1) 
dextrothyroxine

>  <JCHEM_VEBER_RULE>  (1) 
0

>  <MOLECULAR_WEIGHT>  (1) 
776.87

>  <PRODUCTS>  (1) 
Choloxin - Tab 4mg; Choloxin Tab 2mg; Choloxin Tablet 4mg

>  <SALTS>  (1) 
Dextrothyroxine sodium

>  <SECONDARY_ACCESSION_NUMBERS>  (1) 
APRD00911

>  <SMILES>  (1) 
N[C@H](CC1=CC(I)=C(OC2=CC(I)=C(O)C(I)=C2)C(I)=C1)C(O)=O

>  <SYNONYMS>  (1) 
D-thyroxine

$$$$
