920
     RDKit          2D

 41 44  0  0  0  0  0  0  0  0999 V2000
    1.9717    1.6084    0.0000 S   0  0  0  0  0  0  0  0  0  0  0  0
    2.9451    2.9253    0.0000 O   0  0  0  0  0  0  0  0  0  0  0  0
    3.7156   -2.1003    0.0000 N   0  0  0  0  0  0  0  0  0  0  0  0
    3.7156   -0.4503    0.0000 C   0  0  0  0  0  0  0  0  0  0  0  0
    4.4301   -0.8628    0.0000 C   0  0  0  0  0  0  0  0  0  0  0  0
    3.0012   -0.8628    0.0000 C   0  0  0  0  0  0  0  0  0  0  0  0
    4.4301   -1.6878    0.0000 C   0  0  0  0  0  0  0  0  0  0  0  0
    3.0012   -1.6878    0.0000 C   0  0  0  0  0  0  0  0  0  0  0  0
    3.7156    0.3747    0.0000 C   0  0  0  0  0  0  0  0  0  0  0  0
    4.4590    0.7327    0.0000 C   0  0  0  0  0  0  0  0  0  0  0  0
    2.9723    0.7327    0.0000 C   0  0  0  0  0  0  0  0  0  0  0  0
    4.6425    1.5370    0.0000 C   0  0  0  0  0  0  0  0  0  0  0  0
    3.7156   -2.9253    0.0000 C   0  0  0  0  0  0  0  0  0  0  0  0
    2.7887    1.5370    0.0000 C   0  0  0  0  0  0  0  0  0  0  0  0
    4.1281    2.1820    0.0000 C   0  0  0  0  0  0  0  0  0  0  0  0
    3.3031    2.1820    0.0000 C   0  0  0  0  0  0  0  0  0  0  0  0
    5.0798    0.1385    0.0000 C   0  0  0  0  0  0  0  0  0  0  0  0
    2.2671    0.3138    0.0000 C   0  0  0  0  0  0  0  0  0  0  0  0
    5.4597    1.8029    0.0000 C   0  0  0  0  0  0  0  0  0  0  0  0
    1.6500    0.8540    0.0000 C   0  0  0  0  0  0  0  0  0  0  0  0
    5.9029    0.3854    0.0000 C   0  0  0  0  0  0  0  0  0  0  0  0
    6.0941    1.2232    0.0000 C   0  0  0  0  0  0  0  0  0  0  0  0
    0.0000    0.0000    0.0000 H   0  0  0  0  0  0  0  0  0  0  0  0
    0.0000    0.0000    0.0000 H   0  0  0  0  0  0  0  0  0  0  0  0
    0.0000    0.0000    0.0000 H   0  0  0  0  0  0  0  0  0  0  0  0
    0.0000    0.0000    0.0000 H   0  0  0  0  0  0  0  0  0  0  0  0
    0.0000    0.0000    0.0000 H   0  0  0  0  0  0  0  0  0  0  0  0
    0.0000    0.0000    0.0000 H   0  0  0  0  0  0  0  0  0  0  0  0
    0.0000    0.0000    0.0000 H   0  0  0  0  0  0  0  0  0  0  0  0
    0.0000    0.0000    0.0000 H   0  0  0  0  0  0  0  0  0  0  0  0
    0.0000    0.0000    0.0000 H   0  0  0  0  0  0  0  0  0  0  0  0
    0.0000    0.0000    0.0000 H   0  0  0  0  0  0  0  0  0  0  0  0
    0.0000    0.0000    0.0000 H   0  0  0  0  0  0  0  0  0  0  0  0
    0.0000    0.0000    0.0000 H   0  0  0  0  0  0  0  0  0  0  0  0
    0.0000    0.0000    0.0000 H   0  0  0  0  0  0  0  0  0  0  0  0
    0.0000    0.0000    0.0000 H   0  0  0  0  0  0  0  0  0  0  0  0
    0.0000    0.0000    0.0000 H   0  0  0  0  0  0  0  0  0  0  0  0
    0.0000    0.0000    0.0000 H   0  0  0  0  0  0  0  0  0  0  0  0
    0.0000    0.0000    0.0000 H   0  0  0  0  0  0  0  0  0  0  0  0
    0.0000    0.0000    0.0000 H   0  0  0  0  0  0  0  0  0  0  0  0
    0.0000    0.0000    0.0000 H   0  0  0  0  0  0  0  0  0  0  0  0
  1 14  1  0
  1 20  1  0
  2 16  2  0
  3  7  1  0
  3  8  1  0
  3 13  1  0
  4  5  1  0
  4  6  1  0
  4  9  2  3
  5  7  1  0
  6  8  1  0
  9 10  1  0
  9 11  1  0
 10 12  2  0
 10 17  1  0
 11 14  2  0
 11 18  1  0
 12 15  1  0
 12 19  1  0
 14 16  1  0
 15 16  1  0
 17 21  2  0
 18 20  2  0
 19 22  2  0
 21 22  1  0
  5 23  1  0
  5 24  1  0
  6 25  1  0
  6 26  1  0
  7 27  1  0
  7 28  1  0
  8 29  1  0
  8 30  1  0
 13 31  1  0
 13 32  1  0
 13 33  1  0
 15 34  1  0
 15 35  1  0
 17 36  1  0
 18 37  1  0
 19 38  1  0
 20 39  1  0
 21 40  1  0
 22 41  1  0
M  END
>  <ALOGPS_LOGP>  (1) 
3.49

>  <ALOGPS_LOGS>  (1) 
-4.59

>  <ALOGPS_SOLUBILITY>  (1) 
7.87e-03 g/l

>  <DATABASE_ID>  (1) 
DB00920

>  <DATABASE_NAME>  (1) 
drugbank

>  <DRUGBANK_ID>  (1) 
DB00920

>  <DRUG_GROUPS>  (1) 
approved

>  <EXACT_MASS>  (1) 
309.118734925

>  <FORMULA>  (1) 
C19H19NOS

>  <GENERIC_NAME>  (1) 
Ketotifen

>  <INCHI_IDENTIFIER>  (1) 
InChI=1S/C19H19NOS/c1-20-9-6-13(7-10-20)18-15-5-3-2-4-14(15)12-17(21)19-16(18)8-11-22-19/h2-5,8,11H,6-7,9-10,12H2,1H3

>  <INCHI_KEY>  (1) 
ZCVMWBYGMWKGHF-UHFFFAOYSA-N

>  <INTERNATIONAL_BRANDS>  (1) 
Totifen; Zasten

>  <JCHEM_ACCEPTOR_COUNT>  (1) 
2

>  <JCHEM_AVERAGE_POLARIZABILITY>  (1) 
34.61451824356662

>  <JCHEM_BIOAVAILABILITY>  (1) 
1

>  <JCHEM_DONOR_COUNT>  (1) 
0

>  <JCHEM_FORMAL_CHARGE>  (1) 
0

>  <JCHEM_GHOSE_FILTER>  (1) 
1

>  <JCHEM_IUPAC>  (1) 
2-(1-methylpiperidin-4-ylidene)-6-thiatricyclo[8.4.0.0³,⁷]tetradeca-1(14),3(7),4,10,12-pentaen-8-one

>  <JCHEM_LOGP>  (1) 
3.3478693229999994

>  <JCHEM_MDDR_LIKE_RULE>  (1) 
0

>  <JCHEM_NUMBER_OF_RINGS>  (1) 
4

>  <JCHEM_PHYSIOLOGICAL_CHARGE>  (1) 
1

>  <JCHEM_PKA_STRONGEST_ACIDIC>  (1) 
12.299357282643564

>  <JCHEM_PKA_STRONGEST_BASIC>  (1) 
7.145918672338627

>  <JCHEM_POLAR_SURFACE_AREA>  (1) 
20.310000000000002

>  <JCHEM_REFRACTIVITY>  (1) 
101.73400000000002

>  <JCHEM_ROTATABLE_BOND_COUNT>  (1) 
0

>  <JCHEM_RULE_OF_FIVE>  (1) 
1

>  <JCHEM_TRADITIONAL_IUPAC>  (1) 
ketotifen

>  <JCHEM_VEBER_RULE>  (1) 
1

>  <MOLECULAR_WEIGHT>  (1) 
309.425

>  <PRODUCTS>  (1) 
Alaway; Allergy Eye; Allergy Eye Drops; Allergy Eye Original Prescription Strength; Allergy Relief Eye; Allergy Relief Eye Drops; Antihistamine Eye; Apo-ketotifen - Syr 1mg/5ml; Care One Allergy Eye; Care One Eye Itch Relief; Equaline Eye Itch Relief; Equate Itchy Eye; Eye Itch; Eye Itch Relief; Good Neighbor Pharmacy Eye Itch Relief; Good Neighbor Pharmacy Itchy Eye; Good Sense Allergy Eye; Good Sense Eye Itch Relief; Good Sense itchy eye original prescription strength; Health Mart eye itch relief; Itchy Eye; Itchy Eye Drops; Itchy Eye Original Prescription Strength; Itchy Eye Relief; Ketotifen Fumarate; Ketotifen Ophthalmic Solution; Leader Allergy Eye; Leader Eye Itch Relief Drops; Novo-ketotifen - Syr 1mg/5ml; Novo-ketotifen Tab 1mg; Nu-ketotifen Syrup - 1mg/5ml; PMS-ketotifen; Smart Sense Allergy; Sunmark eye itch relief; Topcare Eye Itch Relief; Up and Up Eye Itch Relief; Wal Zyr; Zaditen; Zaditen - Dps 1mg/ml; Zaditor; equate Eye Itch Relief

>  <SALTS>  (1) 
Ketotifen fumarate

>  <SECONDARY_ACCESSION_NUMBERS>  (1) 
APRD01061

>  <SMILES>  (1) 
CN1CCC(CC1)=C1C2=C(SC=C2)C(=O)CC2=CC=CC=C12

>  <SYNONYMS>  (1) 
Ketotifene; Ketotifeno; Ketotifenum

$$$$
