860
     RDKit          2D

 54 57  0  0  1  0  0  0  0  0999 V2000
    6.6263    1.5366    0.0000 O   0  0  0  0  0  0  0  0  0  0  0  0
    3.9559    0.9126    0.0000 O   0  0  0  0  0  0  0  0  0  0  0  0
    7.4634    2.0559    0.0000 O   0  0  0  0  0  0  0  0  0  0  0  0
    8.9696    1.3822    0.0000 O   0  0  0  0  0  0  0  0  0  0  0  0
    1.6500   -2.0181    0.0000 O   0  0  0  0  0  0  0  0  0  0  0  0
    6.0993    0.5001    0.0000 C   0  0  0  0  0  0  0  0  0  0  0  0
    6.0993   -0.3249    0.0000 C   0  0  0  0  0  0  0  0  0  0  0  0
    5.3849   -0.7374    0.0000 C   0  0  0  0  0  0  0  0  0  0  0  0
    4.6703   -0.3249    0.0000 C   0  0  0  0  0  0  0  0  0  0  0  0
    6.8799    0.7515    0.0000 C   0  0  0  0  0  0  0  0  0  0  0  0
    5.3849    0.9126    0.0000 C   0  0  0  0  0  0  0  0  0  0  0  0
    6.8799   -0.5763    0.0000 C   0  0  0  0  0  0  0  0  0  0  0  0
    4.6703    0.5001    0.0000 C   0  0  0  0  0  0  0  0  0  0  0  0
    3.9196   -0.7431    0.0000 C   0  0  0  0  0  0  0  0  0  0  0  0
    7.3614    0.0876    0.0000 C   0  0  0  0  0  0  0  0  0  0  0  0
    5.3981   -1.5966    0.0000 C   0  0  0  0  0  0  0  0  0  0  0  0
    6.0993    1.3251    0.0000 C   0  0  0  0  0  0  0  0  0  0  0  0
    4.6572   -2.0321    0.0000 C   0  0  0  0  0  0  0  0  0  0  0  0
    3.9130   -1.6024    0.0000 C   0  0  0  0  0  0  0  0  0  0  0  0
    7.5482    1.2353    0.0000 C   0  0  0  0  0  0  0  0  0  0  0  0
    3.9259    0.0819    0.0000 C   0  0  0  0  0  0  0  0  0  0  0  0
    3.1550   -0.2777    0.0000 C   0  0  0  0  0  0  0  0  0  0  0  0
    3.1413   -2.0559    0.0000 C   0  0  0  0  0  0  0  0  0  0  0  0
    8.3013    0.8984    0.0000 C   0  0  0  0  0  0  0  0  0  0  0  0
    2.3729   -0.7132    0.0000 C   0  0  0  0  0  0  0  0  0  0  0  0
    2.3660   -1.6083    0.0000 C   0  0  0  0  0  0  0  0  0  0  0  0
    0.0000    0.0000    0.0000 H   0  0  0  0  0  0  0  0  0  0  0  0
    0.0000    0.0000    0.0000 H   0  0  0  0  0  0  0  0  0  0  0  0
    0.0000    0.0000    0.0000 H   0  0  0  0  0  0  0  0  0  0  0  0
    0.0000    0.0000    0.0000 H   0  0  0  0  0  0  0  0  0  0  0  0
    0.0000    0.0000    0.0000 H   0  0  0  0  0  0  0  0  0  0  0  0
    0.0000    0.0000    0.0000 H   0  0  0  0  0  0  0  0  0  0  0  0
    0.0000    0.0000    0.0000 H   0  0  0  0  0  0  0  0  0  0  0  0
    0.0000    0.0000    0.0000 H   0  0  0  0  0  0  0  0  0  0  0  0
    0.0000    0.0000    0.0000 H   0  0  0  0  0  0  0  0  0  0  0  0
    0.0000    0.0000    0.0000 H   0  0  0  0  0  0  0  0  0  0  0  0
    0.0000    0.0000    0.0000 H   0  0  0  0  0  0  0  0  0  0  0  0
    0.0000    0.0000    0.0000 H   0  0  0  0  0  0  0  0  0  0  0  0
    0.0000    0.0000    0.0000 H   0  0  0  0  0  0  0  0  0  0  0  0
    0.0000    0.0000    0.0000 H   0  0  0  0  0  0  0  0  0  0  0  0
    0.0000    0.0000    0.0000 H   0  0  0  0  0  0  0  0  0  0  0  0
    0.0000    0.0000    0.0000 H   0  0  0  0  0  0  0  0  0  0  0  0
    0.0000    0.0000    0.0000 H   0  0  0  0  0  0  0  0  0  0  0  0
    0.0000    0.0000    0.0000 H   0  0  0  0  0  0  0  0  0  0  0  0
    0.0000    0.0000    0.0000 H   0  0  0  0  0  0  0  0  0  0  0  0
    0.0000    0.0000    0.0000 H   0  0  0  0  0  0  0  0  0  0  0  0
    0.0000    0.0000    0.0000 H   0  0  0  0  0  0  0  0  0  0  0  0
    0.0000    0.0000    0.0000 H   0  0  0  0  0  0  0  0  0  0  0  0
    0.0000    0.0000    0.0000 H   0  0  0  0  0  0  0  0  0  0  0  0
    0.0000    0.0000    0.0000 H   0  0  0  0  0  0  0  0  0  0  0  0
    0.0000    0.0000    0.0000 H   0  0  0  0  0  0  0  0  0  0  0  0
    0.0000    0.0000    0.0000 H   0  0  0  0  0  0  0  0  0  0  0  0
    0.0000    0.0000    0.0000 H   0  0  0  0  0  0  0  0  0  0  0  0
    0.0000    0.0000    0.0000 H   0  0  0  0  0  0  0  0  0  0  0  0
 10  1  1  6
 13  2  1  1
  3 20  2  0
  4 24  1  0
  5 26  2  0
  6  7  1  0
  6 10  1  0
  6 11  1  0
  6 17  1  1
  7  8  1  0
  7 12  1  0
  8  9  1  0
  8 16  1  0
  9 13  1  0
  9 14  1  0
 10 15  1  0
 10 20  1  0
 11 13  1  0
 12 15  1  0
 14 19  1  0
 14 21  1  1
 14 22  1  0
 16 18  1  0
 18 19  1  0
 19 23  2  0
 20 24  1  0
 22 25  2  0
 23 26  1  0
 25 26  1  0
  1 27  1  0
  2 28  1  0
  4 29  1  0
  7 30  1  6
  8 31  1  1
  9 32  1  6
 11 33  1  0
 11 34  1  0
 12 35  1  0
 12 36  1  0
 13 37  1  0
 15 38  1  0
 15 39  1  0
 16 40  1  0
 16 41  1  0
 17 42  1  0
 17 43  1  0
 17 44  1  0
 18 45  1  0
 18 46  1  0
 21 47  1  0
 21 48  1  0
 21 49  1  0
 22 50  1  0
 23 51  1  0
 24 52  1  0
 24 53  1  0
 25 54  1  0
M  END
>  <ALOGPS_LOGP>  (1) 
1.66

>  <ALOGPS_LOGS>  (1) 
-3.18

>  <ALOGPS_SOLUBILITY>  (1) 
2.39e-01 g/l

>  <DATABASE_ID>  (1) 
DB00860

>  <DATABASE_NAME>  (1) 
drugbank

>  <DRUGBANK_ID>  (1) 
DB00860

>  <DRUG_GROUPS>  (1) 
approved; vet_approved

>  <EXACT_MASS>  (1) 
360.193674006

>  <FORMULA>  (1) 
C21H28O5

>  <GENERIC_NAME>  (1) 
Prednisolone

>  <INCHI_IDENTIFIER>  (1) 
InChI=1S/C21H28O5/c1-19-7-5-13(23)9-12(19)3-4-14-15-6-8-21(26,17(25)11-22)20(15,2)10-16(24)18(14)19/h5,7,9,14-16,18,22,24,26H,3-4,6,8,10-11H2,1-2H3/t14-,15-,16-,18+,19-,20-,21-/m0/s1

>  <INCHI_KEY>  (1) 
OIGNJSKKLXVSLS-VWUMJDOOSA-N

>  <INTERNATIONAL_BRANDS>  (1) 
Ak-Pred; Decortin H; Delta-Cortef; Deltacortril; Hydeltra; Hydeltra-TBA; Hydeltrasol; Inflamase; Key-Pred; Klismacort; Meticortelone; Panafcortelone; Predonine; Prelone; Solone; Sterolone; Ultracortenol

>  <JCHEM_ACCEPTOR_COUNT>  (1) 
5

>  <JCHEM_AVERAGE_POLARIZABILITY>  (1) 
38.78247065430982

>  <JCHEM_BIOAVAILABILITY>  (1) 
1

>  <JCHEM_DONOR_COUNT>  (1) 
3

>  <JCHEM_FORMAL_CHARGE>  (1) 
0

>  <JCHEM_GHOSE_FILTER>  (1) 
1

>  <JCHEM_IUPAC>  (1) 
(1S,2R,10S,11S,14R,15S,17S)-14,17-dihydroxy-14-(2-hydroxyacetyl)-2,15-dimethyltetracyclo[8.7.0.0²,⁷.0¹¹,¹⁵]heptadeca-3,6-dien-5-one

>  <JCHEM_LOGP>  (1) 
1.2729899243333325

>  <JCHEM_MDDR_LIKE_RULE>  (1) 
0

>  <JCHEM_NUMBER_OF_RINGS>  (1) 
4

>  <JCHEM_PHYSIOLOGICAL_CHARGE>  (1) 
0

>  <JCHEM_PKA>  (1) 
13.864332776193464

>  <JCHEM_PKA_STRONGEST_ACIDIC>  (1) 
12.584675177342387

>  <JCHEM_PKA_STRONGEST_BASIC>  (1) 
-2.8513437450546606

>  <JCHEM_POLAR_SURFACE_AREA>  (1) 
94.83000000000001

>  <JCHEM_REFRACTIVITY>  (1) 
98.49329999999998

>  <JCHEM_ROTATABLE_BOND_COUNT>  (1) 
2

>  <JCHEM_RULE_OF_FIVE>  (1) 
1

>  <JCHEM_TRADITIONAL_IUPAC>  (1) 
prednisolone

>  <JCHEM_VEBER_RULE>  (1) 
0

>  <MOLECULAR_WEIGHT>  (1) 
360.444

>  <PRODUCTS>  (1) 
Ak Tate  Oph Sus 1%; Blephamide; Blephamide Oph Ont; Blephamide Opht Suspension; Diopred Suspension 1%; Dioptimyd Ointment; Flo-Pred; Inflamase Forte Oph Soln 1%; Inflamase Forte Ophthalmic Solution 1%; Inflamase Mild; Inflamase Oph Soln 0.125%; Metimyd Oph Sus; Millipred; Minims Prednisolone Sodium Phosphate 0.5%; Novo-prednisolone 5mg; Odan-cide; Omnipred; Orapred; Orapred ODT; PMS-prednisolone; PMS-prednisolone Sodium Phosphate Ophthalmic Solution Forte; Pediapred; Pediapred - Liq 6.7mg/5ml; Pred Forte; Pred Mild; Pred Mild 0.12%; Pred-G; PrednisoLONE; Prednisolone; Prednisolone Acetate; Prednisolone Acetate Ophthalmic Suspension USP 1%; Prednisolone Sodium Phosphate; Prednisolone Sodium Phosphate 1% Forte; Prednisolone Sodium Phosphate ODT; Prednisolone Sodium Phosphate Oral Solution; Prednisolone/sulfacetamide; R.O.-predphate Tm Forte; Ratio-prednisolone; Sab-prednase; Sandoz Prednisolone; Sulfacetamide Sodium and Prednisolone Sodium Phosphate; Vasocidin Ophthalmic Solution; Veripred 20

>  <SALTS>  (1) 
Prednisolone 21-phosphate; Prednisolone acetate; Prednisolone sodium phosphate; prednisolone sodium succinate; Prednisolone tebutate; Prednisolone tertiary butylacetate

>  <SECONDARY_ACCESSION_NUMBERS>  (1) 
APRD00197

>  <SMILES>  (1) 
[H][C@@]12CC[C@](O)(C(=O)CO)[C@@]1(C)C[C@H](O)[C@@]1([H])[C@@]2([H])CCC2=CC(=O)C=C[C@]12C

>  <SYNONYMS>  (1) 
delta-dehydrocortisol; delta-dehydrohydrocortisone; delta-hydrocortisone; Hydroretrocortine; Metacortandralone; PRDL; Prednisolona; Prednisolonum

$$$$
