689
     RDKit          2D

 47 49  0  0  1  0  0  0  0  0999 V2000
    5.2223   -0.8460    0.0000 S   0  0  0  0  0  0  0  0  0  0  0  0
    7.3508    0.9795    0.0000 O   0  0  0  0  0  0  0  0  0  0  0  0
    3.0790    0.3915    0.0000 O   0  0  0  0  0  0  0  0  0  0  0  0
    4.5079    2.0415    0.0000 O   0  0  0  0  0  0  0  0  0  0  0  0
    8.3633   -0.0131    0.0000 O   0  0  0  0  0  0  0  0  0  0  0  0
    5.9369    2.0415    0.0000 O   0  0  0  0  0  0  0  0  0  0  0  0
    2.3645    1.6290    0.0000 O   0  0  0  0  0  0  0  0  0  0  0  0
    5.9369    0.3915    0.0000 N   0  0  0  0  0  0  0  0  0  0  0  0
    7.3508   -1.0214    0.0000 N   0  0  0  0  0  0  0  0  0  0  0  0
    8.5152   -2.1906    0.0000 N   0  0  0  0  0  0  0  0  0  0  0  0
    5.9369   -0.4335    0.0000 C   0  0  0  0  0  0  0  0  0  0  0  0
    6.7686   -0.4369    0.0000 C   0  0  0  0  0  0  0  0  0  0  0  0
    6.7686    0.3949    0.0000 C   0  0  0  0  0  0  0  0  0  0  0  0
    5.2223    0.8040    0.0000 C   0  0  0  0  0  0  0  0  0  0  0  0
    4.5079    0.3915    0.0000 C   0  0  0  0  0  0  0  0  0  0  0  0
    4.5079   -0.4335    0.0000 C   0  0  0  0  0  0  0  0  0  0  0  0
    3.7934    0.8040    0.0000 C   0  0  0  0  0  0  0  0  0  0  0  0
    8.1481   -0.8096    0.0000 C   0  0  0  0  0  0  0  0  0  0  0  0
    5.2223    1.6290    0.0000 C   0  0  0  0  0  0  0  0  0  0  0  0
    8.7303   -1.3942    0.0000 C   0  0  0  0  0  0  0  0  0  0  0  0
    9.5276   -1.1822    0.0000 C   0  0  0  0  0  0  0  0  0  0  0  0
    9.7428   -0.3858    0.0000 C   0  0  0  0  0  0  0  0  0  0  0  0
   10.1098   -1.7668    0.0000 C   0  0  0  0  0  0  0  0  0  0  0  0
    2.3645    0.8040    0.0000 C   0  0  0  0  0  0  0  0  0  0  0  0
   10.5401   -0.1739    0.0000 C   0  0  0  0  0  0  0  0  0  0  0  0
   10.9072   -1.5550    0.0000 C   0  0  0  0  0  0  0  0  0  0  0  0
   11.1223   -0.7585    0.0000 C   0  0  0  0  0  0  0  0  0  0  0  0
    1.6500    0.3915    0.0000 C   0  0  0  0  0  0  0  0  0  0  0  0
    0.0000    0.0000    0.0000 H   0  0  0  0  0  0  0  0  0  0  0  0
    0.0000    0.0000    0.0000 H   0  0  0  0  0  0  0  0  0  0  0  0
    0.0000    0.0000    0.0000 H   0  0  0  0  0  0  0  0  0  0  0  0
    0.0000    0.0000    0.0000 H   0  0  0  0  0  0  0  0  0  0  0  0
    0.0000    0.0000    0.0000 H   0  0  0  0  0  0  0  0  0  0  0  0
    0.0000    0.0000    0.0000 H   0  0  0  0  0  0  0  0  0  0  0  0
    0.0000    0.0000    0.0000 H   0  0  0  0  0  0  0  0  0  0  0  0
    0.0000    0.0000    0.0000 H   0  0  0  0  0  0  0  0  0  0  0  0
    0.0000    0.0000    0.0000 H   0  0  0  0  0  0  0  0  0  0  0  0
    0.0000    0.0000    0.0000 H   0  0  0  0  0  0  0  0  0  0  0  0
    0.0000    0.0000    0.0000 H   0  0  0  0  0  0  0  0  0  0  0  0
    0.0000    0.0000    0.0000 H   0  0  0  0  0  0  0  0  0  0  0  0
    0.0000    0.0000    0.0000 H   0  0  0  0  0  0  0  0  0  0  0  0
    0.0000    0.0000    0.0000 H   0  0  0  0  0  0  0  0  0  0  0  0
    0.0000    0.0000    0.0000 H   0  0  0  0  0  0  0  0  0  0  0  0
    0.0000    0.0000    0.0000 H   0  0  0  0  0  0  0  0  0  0  0  0
    0.0000    0.0000    0.0000 H   0  0  0  0  0  0  0  0  0  0  0  0
    0.0000    0.0000    0.0000 H   0  0  0  0  0  0  0  0  0  0  0  0
    0.0000    0.0000    0.0000 H   0  0  0  0  0  0  0  0  0  0  0  0
  1 11  1  0
  1 16  1  0
  2 13  2  0
  3 17  1  0
  3 24  1  0
  4 19  1  0
  5 18  2  0
  6 19  2  0
  7 24  2  0
  8 11  1  0
  8 13  1  0
  8 14  1  0
 12  9  1  6
  9 18  1  0
 20 10  1  1
 11 12  1  0
 12 13  1  0
 14 15  2  0
 14 19  1  0
 15 16  1  0
 15 17  1  0
 18 20  1  0
 20 21  1  0
 21 22  2  0
 21 23  1  0
 22 25  1  0
 23 26  2  0
 24 28  1  0
 25 27  2  0
 26 27  1  0
  4 29  1  0
  9 30  1  0
 10 31  1  0
 10 32  1  0
 11 33  1  6
 12 34  1  0
 16 35  1  0
 16 36  1  0
 17 37  1  0
 17 38  1  0
 20 39  1  0
 22 40  1  0
 23 41  1  0
 25 42  1  0
 26 43  1  0
 27 44  1  0
 28 45  1  0
 28 46  1  0
 28 47  1  0
M  END
>  <ALOGPS_LOGP>  (1) 
0.54

>  <ALOGPS_LOGS>  (1) 
-3.44

>  <ALOGPS_SOLUBILITY>  (1) 
1.48e-01 g/l

>  <DATABASE_ID>  (1) 
DB00689

>  <DATABASE_NAME>  (1) 
drugbank

>  <DRUGBANK_ID>  (1) 
DB00689

>  <DRUG_GROUPS>  (1) 
approved

>  <EXACT_MASS>  (1) 
405.099456045

>  <FORMULA>  (1) 
C18H19N3O6S

>  <GENERIC_NAME>  (1) 
Cephaloglycin

>  <INCHI_IDENTIFIER>  (1) 
InChI=1S/C18H19N3O6S/c1-9(22)27-7-11-8-28-17-13(16(24)21(17)14(11)18(25)26)20-15(23)12(19)10-5-3-2-4-6-10/h2-6,12-13,17H,7-8,19H2,1H3,(H,20,23)(H,25,26)/t12-,13-,17-/m1/s1

>  <INCHI_KEY>  (1) 
FUBBGQLTSCSAON-PBFPGSCMSA-N

>  <INTERNATIONAL_BRANDS>  (1) 
Kafocin

>  <JCHEM_ACCEPTOR_COUNT>  (1) 
6

>  <JCHEM_AVERAGE_POLARIZABILITY>  (1) 
37.64055912926436

>  <JCHEM_BIOAVAILABILITY>  (1) 
1

>  <JCHEM_DONOR_COUNT>  (1) 
3

>  <JCHEM_FORMAL_CHARGE>  (1) 
0

>  <JCHEM_GHOSE_FILTER>  (1) 
0

>  <JCHEM_IUPAC>  (1) 
(6R,7R)-3-[(acetyloxy)methyl]-7-[(2R)-2-amino-2-phenylacetamido]-8-oxo-5-thia-1-azabicyclo[4.2.0]oct-2-ene-2-carboxylic acid

>  <JCHEM_LOGP>  (1) 
-2.9842465413384374

>  <JCHEM_MDDR_LIKE_RULE>  (1) 
1

>  <JCHEM_NUMBER_OF_RINGS>  (1) 
3

>  <JCHEM_PHYSIOLOGICAL_CHARGE>  (1) 
0

>  <JCHEM_PKA>  (1) 
11.787101614623854

>  <JCHEM_PKA_STRONGEST_ACIDIC>  (1) 
3.338954501407238

>  <JCHEM_PKA_STRONGEST_BASIC>  (1) 
7.4383533699090165

>  <JCHEM_POLAR_SURFACE_AREA>  (1) 
139.03

>  <JCHEM_REFRACTIVITY>  (1) 
99.89980000000003

>  <JCHEM_ROTATABLE_BOND_COUNT>  (1) 
7

>  <JCHEM_RULE_OF_FIVE>  (1) 
1

>  <JCHEM_TRADITIONAL_IUPAC>  (1) 
cephaloglycin

>  <JCHEM_VEBER_RULE>  (1) 
0

>  <MOLECULAR_WEIGHT>  (1) 
405.425

>  <SALTS>  (1) 
Cefaloglycin dihydrate; Cefaloglycin monohydrate

>  <SECONDARY_ACCESSION_NUMBERS>  (1) 
APRD00858

>  <SMILES>  (1) 
[H][C@]12SCC(COC(C)=O)=C(N1C(=O)[C@H]2NC(=O)[C@H](N)C1=CC=CC=C1)C(O)=O

>  <SYNONYMS>  (1) 
Cefaloglicina; Cefaloglycin; Cefaloglycine; Cefaloglycinum

$$$$
