705
     RDKit          2D

 60 63  0  0  0  0  0  0  0  0999 V2000
    2.3645    1.5132    0.0000 S   0  0  0  0  0  0  0  0  0  0  0  0
    7.7222    2.6401    0.0000 O   0  0  0  0  0  0  0  0  0  0  0  0
    2.7770    2.2276    0.0000 O   0  0  0  0  0  0  0  0  0  0  0  0
    1.9520    0.7986    0.0000 O   0  0  0  0  0  0  0  0  0  0  0  0
    8.5472   -0.2178    0.0000 N   0  0  0  0  0  0  0  0  0  0  0  0
    7.7222    1.2111    0.0000 N   0  0  0  0  0  0  0  0  0  0  0  0
    6.0031    2.5896    0.0000 N   0  0  0  0  0  0  0  0  0  0  0  0
    7.7222   -1.6468    0.0000 N   0  0  0  0  0  0  0  0  0  0  0  0
    9.7847   -0.9323    0.0000 N   0  0  0  0  0  0  0  0  0  0  0  0
    3.0791    1.1007    0.0000 N   0  0  0  0  0  0  0  0  0  0  0  0
    8.9597    0.4967    0.0000 C   0  0  0  0  0  0  0  0  0  0  0  0
    7.7222   -0.2178    0.0000 C   0  0  0  0  0  0  0  0  0  0  0  0
    8.5472    1.2111    0.0000 C   0  0  0  0  0  0  0  0  0  0  0  0
    7.3097    0.4967    0.0000 C   0  0  0  0  0  0  0  0  0  0  0  0
    8.9597   -0.9323    0.0000 C   0  0  0  0  0  0  0  0  0  0  0  0
    7.3097    1.9257    0.0000 C   0  0  0  0  0  0  0  0  0  0  0  0
    6.4846    1.9257    0.0000 C   0  0  0  0  0  0  0  0  0  0  0  0
    8.5472   -1.6468    0.0000 C   0  0  0  0  0  0  0  0  0  0  0  0
    6.0031    1.2617    0.0000 C   0  0  0  0  0  0  0  0  0  0  0  0
    5.2224    1.5132    0.0000 C   0  0  0  0  0  0  0  0  0  0  0  0
    5.2224    2.3382    0.0000 C   0  0  0  0  0  0  0  0  0  0  0  0
    7.3097   -2.3613    0.0000 C   0  0  0  0  0  0  0  0  0  0  0  0
    8.9597   -2.3613    0.0000 C   0  0  0  0  0  0  0  0  0  0  0  0
    4.5080    1.1007    0.0000 C   0  0  0  0  0  0  0  0  0  0  0  0
    4.5080    2.7507    0.0000 C   0  0  0  0  0  0  0  0  0  0  0  0
   10.1972   -1.6468    0.0000 C   0  0  0  0  0  0  0  0  0  0  0  0
    3.7935    1.5132    0.0000 C   0  0  0  0  0  0  0  0  0  0  0  0
    9.7847   -2.3613    0.0000 C   0  0  0  0  0  0  0  0  0  0  0  0
    3.7935    2.3382    0.0000 C   0  0  0  0  0  0  0  0  0  0  0  0
    6.4846   -2.3613    0.0000 C   0  0  0  0  0  0  0  0  0  0  0  0
    7.7222   -3.0758    0.0000 C   0  0  0  0  0  0  0  0  0  0  0  0
    1.6500    1.9257    0.0000 C   0  0  0  0  0  0  0  0  0  0  0  0
    0.0000    0.0000    0.0000 H   0  0  0  0  0  0  0  0  0  0  0  0
    0.0000    0.0000    0.0000 H   0  0  0  0  0  0  0  0  0  0  0  0
    0.0000    0.0000    0.0000 H   0  0  0  0  0  0  0  0  0  0  0  0
    0.0000    0.0000    0.0000 H   0  0  0  0  0  0  0  0  0  0  0  0
    0.0000    0.0000    0.0000 H   0  0  0  0  0  0  0  0  0  0  0  0
    0.0000    0.0000    0.0000 H   0  0  0  0  0  0  0  0  0  0  0  0
    0.0000    0.0000    0.0000 H   0  0  0  0  0  0  0  0  0  0  0  0
    0.0000    0.0000    0.0000 H   0  0  0  0  0  0  0  0  0  0  0  0
    0.0000    0.0000    0.0000 H   0  0  0  0  0  0  0  0  0  0  0  0
    0.0000    0.0000    0.0000 H   0  0  0  0  0  0  0  0  0  0  0  0
    0.0000    0.0000    0.0000 H   0  0  0  0  0  0  0  0  0  0  0  0
    0.0000    0.0000    0.0000 H   0  0  0  0  0  0  0  0  0  0  0  0
    0.0000    0.0000    0.0000 H   0  0  0  0  0  0  0  0  0  0  0  0
    0.0000    0.0000    0.0000 H   0  0  0  0  0  0  0  0  0  0  0  0
    0.0000    0.0000    0.0000 H   0  0  0  0  0  0  0  0  0  0  0  0
    0.0000    0.0000    0.0000 H   0  0  0  0  0  0  0  0  0  0  0  0
    0.0000    0.0000    0.0000 H   0  0  0  0  0  0  0  0  0  0  0  0
    0.0000    0.0000    0.0000 H   0  0  0  0  0  0  0  0  0  0  0  0
    0.0000    0.0000    0.0000 H   0  0  0  0  0  0  0  0  0  0  0  0
    0.0000    0.0000    0.0000 H   0  0  0  0  0  0  0  0  0  0  0  0
    0.0000    0.0000    0.0000 H   0  0  0  0  0  0  0  0  0  0  0  0
    0.0000    0.0000    0.0000 H   0  0  0  0  0  0  0  0  0  0  0  0
    0.0000    0.0000    0.0000 H   0  0  0  0  0  0  0  0  0  0  0  0
    0.0000    0.0000    0.0000 H   0  0  0  0  0  0  0  0  0  0  0  0
    0.0000    0.0000    0.0000 H   0  0  0  0  0  0  0  0  0  0  0  0
    0.0000    0.0000    0.0000 H   0  0  0  0  0  0  0  0  0  0  0  0
    0.0000    0.0000    0.0000 H   0  0  0  0  0  0  0  0  0  0  0  0
    0.0000    0.0000    0.0000 H   0  0  0  0  0  0  0  0  0  0  0  0
  1  3  2  0
  1  4  2  0
  1 10  1  0
  1 32  1  0
  2 16  2  0
  5 11  1  0
  5 12  1  0
  5 15  1  0
  6 13  1  0
  6 14  1  0
  6 16  1  0
  7 17  1  0
  7 21  1  0
  8 18  1  0
  8 22  1  0
  9 15  2  0
  9 26  1  0
 10 27  1  0
 11 13  1  0
 12 14  1  0
 15 18  1  0
 16 17  1  0
 17 19  2  0
 18 23  2  0
 19 20  1  0
 20 21  2  0
 20 24  1  0
 21 25  1  0
 22 30  1  0
 22 31  1  0
 23 28  1  0
 24 27  2  0
 25 29  2  0
 26 28  2  0
 27 29  1  0
  7 33  1  0
  8 34  1  0
 10 35  1  0
 11 36  1  0
 11 37  1  0
 12 38  1  0
 12 39  1  0
 13 40  1  0
 13 41  1  0
 14 42  1  0
 14 43  1  0
 19 44  1  0
 22 45  1  0
 23 46  1  0
 24 47  1  0
 25 48  1  0
 26 49  1  0
 28 50  1  0
 29 51  1  0
 30 52  1  0
 30 53  1  0
 30 54  1  0
 31 55  1  0
 31 56  1  0
 31 57  1  0
 32 58  1  0
 32 59  1  0
 32 60  1  0
M  END
>  <ALOGPS_LOGP>  (1) 
2.77

>  <ALOGPS_LOGS>  (1) 
-3.73

>  <ALOGPS_SOLUBILITY>  (1) 
8.60e-02 g/l

>  <DATABASE_ID>  (1) 
DB00705

>  <DATABASE_NAME>  (1) 
drugbank

>  <DRUGBANK_ID>  (1) 
DB00705

>  <DRUG_GROUPS>  (1) 
approved

>  <EXACT_MASS>  (1) 
456.194359482

>  <FORMULA>  (1) 
C22H28N6O3S

>  <GENERIC_NAME>  (1) 
Delavirdine

>  <INCHI_IDENTIFIER>  (1) 
InChI=1S/C22H28N6O3S/c1-15(2)24-19-5-4-8-23-21(19)27-9-11-28(12-10-27)22(29)20-14-16-13-17(26-32(3,30)31)6-7-18(16)25-20/h4-8,13-15,24-26H,9-12H2,1-3H3

>  <INCHI_KEY>  (1) 
WHBIGIKBNXZKFE-UHFFFAOYSA-N

>  <JCHEM_ACCEPTOR_COUNT>  (1) 
6

>  <JCHEM_AVERAGE_POLARIZABILITY>  (1) 
50.01429787157529

>  <JCHEM_BIOAVAILABILITY>  (1) 
1

>  <JCHEM_DONOR_COUNT>  (1) 
3

>  <JCHEM_FORMAL_CHARGE>  (1) 
0

>  <JCHEM_GHOSE_FILTER>  (1) 
1

>  <JCHEM_IUPAC>  (1) 
N-[2-(4-{3-[(propan-2-yl)amino]pyridin-2-yl}piperazine-1-carbonyl)-1H-indol-5-yl]methanesulfonamide

>  <JCHEM_LOGP>  (1) 
1.0243265383333338

>  <JCHEM_MDDR_LIKE_RULE>  (1) 
0

>  <JCHEM_NUMBER_OF_RINGS>  (1) 
4

>  <JCHEM_PHYSIOLOGICAL_CHARGE>  (1) 
0

>  <JCHEM_PKA>  (1) 
12.406612246691395

>  <JCHEM_PKA_STRONGEST_ACIDIC>  (1) 
9.392162229044283

>  <JCHEM_PKA_STRONGEST_BASIC>  (1) 
6.815334009265415

>  <JCHEM_POLAR_SURFACE_AREA>  (1) 
110.43

>  <JCHEM_REFRACTIVITY>  (1) 
126.64340000000001

>  <JCHEM_ROTATABLE_BOND_COUNT>  (1) 
5

>  <JCHEM_RULE_OF_FIVE>  (1) 
1

>  <JCHEM_TRADITIONAL_IUPAC>  (1) 
delavirdine

>  <JCHEM_VEBER_RULE>  (1) 
0

>  <MOLECULAR_WEIGHT>  (1) 
456.561

>  <PRODUCTS>  (1) 
Rescriptor

>  <SALTS>  (1) 
Delavirdine mesylate

>  <SECONDARY_ACCESSION_NUMBERS>  (1) 
APRD00149; DB08563

>  <SMILES>  (1) 
CC(C)NC1=C(N=CC=C1)N1CCN(CC1)C(=O)C1=CC2=C(N1)C=CC(NS(C)(=O)=O)=C2

>  <SYNONYMS>  (1) 
Delavirdin; Delavirdina; Delavirdine; Delavirdinum

$$$$
