716
     RDKit          2D

 44 46  0  0  0  0  0  0  0  0999 V2000
    4.2684    0.2492    0.0000 O   0  0  0  0  0  0  0  0  0  0  0  0
    7.1628   -2.2830    0.0000 O   0  0  0  0  0  0  0  0  0  0  0  0
    4.2780   -2.2830    0.0000 O   0  0  0  0  0  0  0  0  0  0  0  0
    9.3488   -0.1693    0.0000 O   0  0  0  0  0  0  0  0  0  0  0  0
    8.6296    1.0654    0.0000 O   0  0  0  0  0  0  0  0  0  0  0  0
    2.0920   -0.1693    0.0000 O   0  0  0  0  0  0  0  0  0  0  0  0
    2.8112    1.0654    0.0000 O   0  0  0  0  0  0  0  0  0  0  0  0
    7.1724    0.2492    0.0000 N   0  0  0  0  0  0  0  0  0  0  0  0
    6.4348   -0.1920    0.0000 C   0  0  0  0  0  0  0  0  0  0  0  0
    5.7204    0.2205    0.0000 C   0  0  0  0  0  0  0  0  0  0  0  0
    6.4348   -1.0170    0.0000 C   0  0  0  0  0  0  0  0  0  0  0  0
    5.7204    1.0455    0.0000 C   0  0  0  0  0  0  0  0  0  0  0  0
    5.0059   -0.1920    0.0000 C   0  0  0  0  0  0  0  0  0  0  0  0
    5.0059   -1.0170    0.0000 C   0  0  0  0  0  0  0  0  0  0  0  0
    5.7204   -1.4295    0.0000 C   0  0  0  0  0  0  0  0  0  0  0  0
    7.1628    1.0741    0.0000 C   0  0  0  0  0  0  0  0  0  0  0  0
    7.9198   -0.1748    0.0000 C   0  0  0  0  0  0  0  0  0  0  0  0
    5.0059    1.4580    0.0000 C   0  0  0  0  0  0  0  0  0  0  0  0
    7.1724   -1.4581    0.0000 C   0  0  0  0  0  0  0  0  0  0  0  0
    7.9198   -1.0341    0.0000 C   0  0  0  0  0  0  0  0  0  0  0  0
    4.2684   -1.4581    0.0000 C   0  0  0  0  0  0  0  0  0  0  0  0
    7.8725    1.4948    0.0000 C   0  0  0  0  0  0  0  0  0  0  0  0
    5.0059    2.2830    0.0000 C   0  0  0  0  0  0  0  0  0  0  0  0
    3.5209   -0.1748    0.0000 C   0  0  0  0  0  0  0  0  0  0  0  0
    3.5209   -1.0341    0.0000 C   0  0  0  0  0  0  0  0  0  0  0  0
    8.6327    0.2404    0.0000 C   0  0  0  0  0  0  0  0  0  0  0  0
    2.8081    0.2404    0.0000 C   0  0  0  0  0  0  0  0  0  0  0  0
    0.0000    0.0000    0.0000 H   0  0  0  0  0  0  0  0  0  0  0  0
    0.0000    0.0000    0.0000 H   0  0  0  0  0  0  0  0  0  0  0  0
    0.0000    0.0000    0.0000 H   0  0  0  0  0  0  0  0  0  0  0  0
    0.0000    0.0000    0.0000 H   0  0  0  0  0  0  0  0  0  0  0  0
    0.0000    0.0000    0.0000 H   0  0  0  0  0  0  0  0  0  0  0  0
    0.0000    0.0000    0.0000 H   0  0  0  0  0  0  0  0  0  0  0  0
    0.0000    0.0000    0.0000 H   0  0  0  0  0  0  0  0  0  0  0  0
    0.0000    0.0000    0.0000 H   0  0  0  0  0  0  0  0  0  0  0  0
    0.0000    0.0000    0.0000 H   0  0  0  0  0  0  0  0  0  0  0  0
    0.0000    0.0000    0.0000 H   0  0  0  0  0  0  0  0  0  0  0  0
    0.0000    0.0000    0.0000 H   0  0  0  0  0  0  0  0  0  0  0  0
    0.0000    0.0000    0.0000 H   0  0  0  0  0  0  0  0  0  0  0  0
    0.0000    0.0000    0.0000 H   0  0  0  0  0  0  0  0  0  0  0  0
    0.0000    0.0000    0.0000 H   0  0  0  0  0  0  0  0  0  0  0  0
    0.0000    0.0000    0.0000 H   0  0  0  0  0  0  0  0  0  0  0  0
    0.0000    0.0000    0.0000 H   0  0  0  0  0  0  0  0  0  0  0  0
    0.0000    0.0000    0.0000 H   0  0  0  0  0  0  0  0  0  0  0  0
  1 13  1  0
  1 24  1  0
  2 19  2  0
  3 21  2  0
  4 26  1  0
  5 26  2  0
  6 27  1  0
  7 27  2  0
  8  9  1  0
  8 16  1  0
  8 17  1  0
  9 10  1  0
  9 11  2  0
 10 12  1  0
 10 13  2  0
 11 15  1  0
 11 19  1  0
 12 18  1  0
 13 14  1  0
 14 15  2  0
 14 21  1  0
 16 22  1  0
 17 20  2  0
 17 26  1  0
 18 23  1  0
 19 20  1  0
 21 25  1  0
 24 25  2  0
 24 27  1  0
  4 28  1  0
  6 29  1  0
 12 30  1  0
 12 31  1  0
 15 32  1  0
 16 33  1  0
 16 34  1  0
 18 35  1  0
 18 36  1  0
 20 37  1  0
 22 38  1  0
 22 39  1  0
 22 40  1  0
 23 41  1  0
 23 42  1  0
 23 43  1  0
 25 44  1  0
M  END
>  <ALOGPS_LOGP>  (1) 
2.18

>  <ALOGPS_LOGS>  (1) 
-3.91

>  <ALOGPS_SOLUBILITY>  (1) 
4.59e-02 g/l

>  <DATABASE_ID>  (1) 
DB00716

>  <DATABASE_NAME>  (1) 
drugbank

>  <DRUGBANK_ID>  (1) 
DB00716

>  <DRUG_GROUPS>  (1) 
approved

>  <EXACT_MASS>  (1) 
371.100501903

>  <FORMULA>  (1) 
C19H17NO7

>  <GENERIC_NAME>  (1) 
Nedocromil

>  <INCHI_IDENTIFIER>  (1) 
InChI=1S/C19H17NO7/c1-3-5-9-16-10(13(21)7-12(18(23)24)20(16)4-2)6-11-14(22)8-15(19(25)26)27-17(9)11/h6-8H,3-5H2,1-2H3,(H,23,24)(H,25,26)

>  <INCHI_KEY>  (1) 
RQTOOFIXOKYGAN-UHFFFAOYSA-N

>  <JCHEM_ACCEPTOR_COUNT>  (1) 
8

>  <JCHEM_AVERAGE_POLARIZABILITY>  (1) 
36.94767554782052

>  <JCHEM_BIOAVAILABILITY>  (1) 
1

>  <JCHEM_DONOR_COUNT>  (1) 
2

>  <JCHEM_FORMAL_CHARGE>  (1) 
0

>  <JCHEM_GHOSE_FILTER>  (1) 
1

>  <JCHEM_IUPAC>  (1) 
9-ethyl-4,6-dioxo-10-propyl-4H,6H,9H-chromeno[7,6-b]pyridine-2,8-dicarboxylic acid

>  <JCHEM_LOGP>  (1) 
2.496716765666666

>  <JCHEM_MDDR_LIKE_RULE>  (1) 
0

>  <JCHEM_NUMBER_OF_RINGS>  (1) 
3

>  <JCHEM_PHYSIOLOGICAL_CHARGE>  (1) 
-2

>  <JCHEM_PKA>  (1) 
3.1166609308657067

>  <JCHEM_PKA_STRONGEST_ACIDIC>  (1) 
2.2765472407815217

>  <JCHEM_PKA_STRONGEST_BASIC>  (1) 
-4.173980844534424

>  <JCHEM_POLAR_SURFACE_AREA>  (1) 
121.21000000000002

>  <JCHEM_REFRACTIVITY>  (1) 
98.08599999999998

>  <JCHEM_ROTATABLE_BOND_COUNT>  (1) 
5

>  <JCHEM_RULE_OF_FIVE>  (1) 
1

>  <JCHEM_TRADITIONAL_IUPAC>  (1) 
nedocromil

>  <JCHEM_VEBER_RULE>  (1) 
0

>  <MOLECULAR_WEIGHT>  (1) 
371.3408

>  <PRODUCTS>  (1) 
Alocril; Mireze; Nedocromil Sodium; Tilade; Tilade Inhaler 2mg/aem

>  <SALTS>  (1) 
Nedocromil sodium

>  <SECONDARY_ACCESSION_NUMBERS>  (1) 
APRD01137

>  <SMILES>  (1) 
CCCC1=C2N(CC)C(=CC(=O)C2=CC2=C1OC(=CC2=O)C(O)=O)C(O)=O

>  <SYNONYMS>  (1) 
Nedocromil; Nedocromilo; Nedocromilum

$$$$
