831
     RDKit          2D

 52 55  0  0  0  0  0  0  0  0999 V2000
    5.2216   -2.6666    0.0000 S   0  0  0  0  0  0  0  0  0  0  0  0
    7.7184   -0.2841    0.0000 F   0  0  0  0  0  0  0  0  0  0  0  0
    8.5488   -1.7097    0.0000 F   0  0  0  0  0  0  0  0  0  0  0  0
    8.8463   -0.5817    0.0000 F   0  0  0  0  0  0  0  0  0  0  0  0
    3.7929    1.4578    0.0000 N   0  0  0  0  0  0  0  0  0  0  0  0
    2.3641    2.2827    0.0000 N   0  0  0  0  0  0  0  0  0  0  0  0
    5.2216   -1.0169    0.0000 N   0  0  0  0  0  0  0  0  0  0  0  0
    3.7929    2.2827    0.0000 C   0  0  0  0  0  0  0  0  0  0  0  0
    3.0786    1.0454    0.0000 C   0  0  0  0  0  0  0  0  0  0  0  0
    4.5073    1.0454    0.0000 C   0  0  0  0  0  0  0  0  0  0  0  0
    3.0786    2.6951    0.0000 C   0  0  0  0  0  0  0  0  0  0  0  0
    2.3641    1.4578    0.0000 C   0  0  0  0  0  0  0  0  0  0  0  0
    4.5073    0.2205    0.0000 C   0  0  0  0  0  0  0  0  0  0  0  0
    5.2216   -0.1920    0.0000 C   0  0  0  0  0  0  0  0  0  0  0  0
    1.6498    2.6951    0.0000 C   0  0  0  0  0  0  0  0  0  0  0  0
    5.9361   -1.4293    0.0000 C   0  0  0  0  0  0  0  0  0  0  0  0
    4.5073   -1.4293    0.0000 C   0  0  0  0  0  0  0  0  0  0  0  0
    5.9361   -2.2542    0.0000 C   0  0  0  0  0  0  0  0  0  0  0  0
    4.5073   -2.2542    0.0000 C   0  0  0  0  0  0  0  0  0  0  0  0
    6.6734   -0.9883    0.0000 C   0  0  0  0  0  0  0  0  0  0  0  0
    3.7699   -0.9883    0.0000 C   0  0  0  0  0  0  0  0  0  0  0  0
    7.4209   -1.4121    0.0000 C   0  0  0  0  0  0  0  0  0  0  0  0
    6.6734   -2.6951    0.0000 C   0  0  0  0  0  0  0  0  0  0  0  0
    3.7699   -2.6951    0.0000 C   0  0  0  0  0  0  0  0  0  0  0  0
    7.4209   -2.2713    0.0000 C   0  0  0  0  0  0  0  0  0  0  0  0
    3.0225   -1.4121    0.0000 C   0  0  0  0  0  0  0  0  0  0  0  0
    3.0225   -2.2713    0.0000 C   0  0  0  0  0  0  0  0  0  0  0  0
    8.1336   -0.9969    0.0000 C   0  0  0  0  0  0  0  0  0  0  0  0
    0.0000    0.0000    0.0000 H   0  0  0  0  0  0  0  0  0  0  0  0
    0.0000    0.0000    0.0000 H   0  0  0  0  0  0  0  0  0  0  0  0
    0.0000    0.0000    0.0000 H   0  0  0  0  0  0  0  0  0  0  0  0
    0.0000    0.0000    0.0000 H   0  0  0  0  0  0  0  0  0  0  0  0
    0.0000    0.0000    0.0000 H   0  0  0  0  0  0  0  0  0  0  0  0
    0.0000    0.0000    0.0000 H   0  0  0  0  0  0  0  0  0  0  0  0
    0.0000    0.0000    0.0000 H   0  0  0  0  0  0  0  0  0  0  0  0
    0.0000    0.0000    0.0000 H   0  0  0  0  0  0  0  0  0  0  0  0
    0.0000    0.0000    0.0000 H   0  0  0  0  0  0  0  0  0  0  0  0
    0.0000    0.0000    0.0000 H   0  0  0  0  0  0  0  0  0  0  0  0
    0.0000    0.0000    0.0000 H   0  0  0  0  0  0  0  0  0  0  0  0
    0.0000    0.0000    0.0000 H   0  0  0  0  0  0  0  0  0  0  0  0
    0.0000    0.0000    0.0000 H   0  0  0  0  0  0  0  0  0  0  0  0
    0.0000    0.0000    0.0000 H   0  0  0  0  0  0  0  0  0  0  0  0
    0.0000    0.0000    0.0000 H   0  0  0  0  0  0  0  0  0  0  0  0
    0.0000    0.0000    0.0000 H   0  0  0  0  0  0  0  0  0  0  0  0
    0.0000    0.0000    0.0000 H   0  0  0  0  0  0  0  0  0  0  0  0
    0.0000    0.0000    0.0000 H   0  0  0  0  0  0  0  0  0  0  0  0
    0.0000    0.0000    0.0000 H   0  0  0  0  0  0  0  0  0  0  0  0
    0.0000    0.0000    0.0000 H   0  0  0  0  0  0  0  0  0  0  0  0
    0.0000    0.0000    0.0000 H   0  0  0  0  0  0  0  0  0  0  0  0
    0.0000    0.0000    0.0000 H   0  0  0  0  0  0  0  0  0  0  0  0
    0.0000    0.0000    0.0000 H   0  0  0  0  0  0  0  0  0  0  0  0
    0.0000    0.0000    0.0000 H   0  0  0  0  0  0  0  0  0  0  0  0
  1 18  1  0
  1 19  1  0
  2 28  1  0
  3 28  1  0
  4 28  1  0
  5  8  1  0
  5  9  1  0
  5 10  1  0
  6 11  1  0
  6 12  1  0
  6 15  1  0
  7 14  1  0
  7 16  1  0
  7 17  1  0
  8 11  1  0
  9 12  1  0
 10 13  1  0
 13 14  1  0
 16 18  2  0
 16 20  1  0
 17 19  2  0
 17 21  1  0
 18 23  1  0
 19 24  1  0
 20 22  2  0
 21 26  2  0
 22 25  1  0
 22 28  1  0
 23 25  2  0
 24 27  2  0
 26 27  1  0
  8 29  1  0
  8 30  1  0
  9 31  1  0
  9 32  1  0
 10 33  1  0
 10 34  1  0
 11 35  1  0
 11 36  1  0
 12 37  1  0
 12 38  1  0
 13 39  1  0
 13 40  1  0
 14 41  1  0
 14 42  1  0
 15 43  1  0
 15 44  1  0
 15 45  1  0
 20 46  1  0
 21 47  1  0
 23 48  1  0
 24 49  1  0
 25 50  1  0
 26 51  1  0
 27 52  1  0
M  END
>  <ALOGPS_LOGP>  (1) 
4.87

>  <ALOGPS_LOGS>  (1) 
-4.67

>  <ALOGPS_SOLUBILITY>  (1) 
8.76e-03 g/l

>  <DATABASE_ID>  (1) 
DB00831

>  <DATABASE_NAME>  (1) 
drugbank

>  <DRUGBANK_ID>  (1) 
DB00831

>  <DRUG_GROUPS>  (1) 
approved

>  <EXACT_MASS>  (1) 
407.164303088

>  <FORMULA>  (1) 
C21H24F3N3S

>  <GENERIC_NAME>  (1) 
Trifluoperazine

>  <INCHI_IDENTIFIER>  (1) 
InChI=1S/C21H24F3N3S/c1-25-11-13-26(14-12-25)9-4-10-27-17-5-2-3-6-19(17)28-20-8-7-16(15-18(20)27)21(22,23)24/h2-3,5-8,15H,4,9-14H2,1H3

>  <INCHI_KEY>  (1) 
ZEWQUBUPAILYHI-UHFFFAOYSA-N

>  <INTERNATIONAL_BRANDS>  (1) 
Eskazine; Eskazinyl; Jatroneural; Modalina; Stelazine; Terfluzine; Trifluoperaz; Triftazin

>  <JCHEM_ACCEPTOR_COUNT>  (1) 
3

>  <JCHEM_AVERAGE_POLARIZABILITY>  (1) 
41.94441396365014

>  <JCHEM_BIOAVAILABILITY>  (1) 
1

>  <JCHEM_DONOR_COUNT>  (1) 
0

>  <JCHEM_FORMAL_CHARGE>  (1) 
0

>  <JCHEM_GHOSE_FILTER>  (1) 
1

>  <JCHEM_IUPAC>  (1) 
10-[3-(4-methylpiperazin-1-yl)propyl]-2-(trifluoromethyl)-10H-phenothiazine

>  <JCHEM_LOGP>  (1) 
4.655923626666667

>  <JCHEM_MDDR_LIKE_RULE>  (1) 
0

>  <JCHEM_NUMBER_OF_RINGS>  (1) 
4

>  <JCHEM_PHYSIOLOGICAL_CHARGE>  (1) 
1

>  <JCHEM_PKA_STRONGEST_BASIC>  (1) 
8.389157008062217

>  <JCHEM_POLAR_SURFACE_AREA>  (1) 
9.72

>  <JCHEM_REFRACTIVITY>  (1) 
110.97530000000002

>  <JCHEM_ROTATABLE_BOND_COUNT>  (1) 
5

>  <JCHEM_RULE_OF_FIVE>  (1) 
1

>  <JCHEM_TRADITIONAL_IUPAC>  (1) 
trifluoperazine

>  <JCHEM_VEBER_RULE>  (1) 
1

>  <MOLECULAR_WEIGHT>  (1) 
407.496

>  <PRODUCTS>  (1) 
Novo-flurazine Tab 1mg; Novo-flurazine Tab 20mg; Novo-trifluzine - Tab 10mg; Novo-trifluzine - Tab 2mg; Novo-trifluzine - Tab 5mg; PMS Trifluoperazine HCl Syrup 11.8mg/ml; PMS Trifluoperazine Tab 10mg; PMS Trifluoperazine Tab 1mg; PMS Trifluoperazine Tab 20mg; PMS Trifluoperazine Tab 2mg; PMS Trifluoperazine Tab 5mg; PMS-trifluoperazine HCl Syr 1.18mg/ml; Stelabid Forte; Stelabid No 1; Stelabid No 2; Stelazine Tab 10mg; Stelazine Tab 1mg; Stelazine Tab 2mg; Stelazine Tab 5mg; Terfluzine Concentrate; Terfluzine-1; Terfluzine-10; Terfluzine-2; Terfluzine-5; Trifluoperazine; Trifluoperazine 10mg Tablets; Trifluoperazine 1mg Tablets; Trifluoperazine 2mg Tablets; Trifluoperazine 5mg Tablets; Trifluoperazine Hydrochloride; Trifluoperazine Tab 10mg; Trifluoperazine Tab 1mg; Trifluoperazine Tab 2mg; Trifluoperazine Tab 5mg

>  <SALTS>  (1) 
Trifluoperazine Hydrochloride

>  <SECONDARY_ACCESSION_NUMBERS>  (1) 
APRD00173; DB08616

>  <SMILES>  (1) 
CN1CCN(CCCN2C3=CC=CC=C3SC3=C2C=C(C=C3)C(F)(F)F)CC1

>  <SYNONYMS>  (1) 
Trifluoperazina; Trifluoroperazine; Trifluperazine

$$$$
