800
     RDKit          2D

 37 39  0  0  1  0  0  0  0  0999 V2000
    1.6500    0.3114    0.0000 Cl  0  0  0  0  0  0  0  0  0  0  0  0
    3.2859   -2.1079    0.0000 O   0  0  0  0  0  0  0  0  0  0  0  0
    1.7633   -1.3747    0.0000 O   0  0  0  0  0  0  0  0  0  0  0  0
    7.1733   -1.6396    0.0000 O   0  0  0  0  0  0  0  0  0  0  0  0
    4.2624    1.8673    0.0000 N   0  0  0  0  0  0  0  0  0  0  0  0
    4.5932    0.4179    0.0000 C   0  0  0  0  0  0  0  0  0  0  0  0
    3.8499    0.0600    0.0000 C   0  0  0  0  0  0  0  0  0  0  0  0
    4.7768    1.2223    0.0000 C   0  0  0  0  0  0  0  0  0  0  0  0
    3.1066    0.4179    0.0000 C   0  0  0  0  0  0  0  0  0  0  0  0
    2.9230    1.2223    0.0000 C   0  0  0  0  0  0  0  0  0  0  0  0
    3.4373    1.8673    0.0000 C   0  0  0  0  0  0  0  0  0  0  0  0
    5.2382   -0.0965    0.0000 C   0  0  0  0  0  0  0  0  0  0  0  0
    3.9273   -0.7959    0.0000 C   0  0  0  0  0  0  0  0  0  0  0  0
    2.3892   -0.0552    0.0000 C   0  0  0  0  0  0  0  0  0  0  0  0
    3.2210   -1.2855    0.0000 C   0  0  0  0  0  0  0  0  0  0  0  0
    6.0062    0.2049    0.0000 C   0  0  0  0  0  0  0  0  0  0  0  0
    5.1153   -0.9123    0.0000 C   0  0  0  0  0  0  0  0  0  0  0  0
    2.4467   -0.9126    0.0000 C   0  0  0  0  0  0  0  0  0  0  0  0
    6.6512   -0.3095    0.0000 C   0  0  0  0  0  0  0  0  0  0  0  0
    5.7603   -1.4267    0.0000 C   0  0  0  0  0  0  0  0  0  0  0  0
    6.5283   -1.1252    0.0000 C   0  0  0  0  0  0  0  0  0  0  0  0
    0.0000    0.0000    0.0000 H   0  0  0  0  0  0  0  0  0  0  0  0
    0.0000    0.0000    0.0000 H   0  0  0  0  0  0  0  0  0  0  0  0
    0.0000    0.0000    0.0000 H   0  0  0  0  0  0  0  0  0  0  0  0
    0.0000    0.0000    0.0000 H   0  0  0  0  0  0  0  0  0  0  0  0
    0.0000    0.0000    0.0000 H   0  0  0  0  0  0  0  0  0  0  0  0
    0.0000    0.0000    0.0000 H   0  0  0  0  0  0  0  0  0  0  0  0
    0.0000    0.0000    0.0000 H   0  0  0  0  0  0  0  0  0  0  0  0
    0.0000    0.0000    0.0000 H   0  0  0  0  0  0  0  0  0  0  0  0
    0.0000    0.0000    0.0000 H   0  0  0  0  0  0  0  0  0  0  0  0
    0.0000    0.0000    0.0000 H   0  0  0  0  0  0  0  0  0  0  0  0
    0.0000    0.0000    0.0000 H   0  0  0  0  0  0  0  0  0  0  0  0
    0.0000    0.0000    0.0000 H   0  0  0  0  0  0  0  0  0  0  0  0
    0.0000    0.0000    0.0000 H   0  0  0  0  0  0  0  0  0  0  0  0
    0.0000    0.0000    0.0000 H   0  0  0  0  0  0  0  0  0  0  0  0
    0.0000    0.0000    0.0000 H   0  0  0  0  0  0  0  0  0  0  0  0
    0.0000    0.0000    0.0000 H   0  0  0  0  0  0  0  0  0  0  0  0
  1 14  1  0
  2 15  1  0
  3 18  1  0
  4 21  1  0
  5  8  1  0
  5 11  1  0
  6  7  1  0
  6  8  1  0
  6 12  1  0
  7  9  2  0
  7 13  1  0
  9 10  1  0
  9 14  1  0
 10 11  1  0
 12 16  2  0
 12 17  1  0
 13 15  2  0
 14 18  2  0
 15 18  1  0
 16 19  1  0
 17 20  2  0
 19 21  2  0
 20 21  1  0
  2 22  1  0
  3 23  1  0
  4 24  1  0
  5 25  1  0
  6 26  1  0
  8 27  1  0
  8 28  1  0
 10 29  1  0
 10 30  1  0
 11 31  1  0
 11 32  1  0
 13 33  1  0
 16 34  1  0
 17 35  1  0
 19 36  1  0
 20 37  1  0
M  END
>  <ALOGPS_LOGP>  (1) 
2.39

>  <ALOGPS_LOGS>  (1) 
-3.05

>  <ALOGPS_SOLUBILITY>  (1) 
2.72e-01 g/l

>  <DATABASE_ID>  (1) 
DB00800

>  <DATABASE_NAME>  (1) 
drugbank

>  <DRUGBANK_ID>  (1) 
DB00800

>  <DRUG_GROUPS>  (1) 
approved

>  <EXACT_MASS>  (1) 
305.08187109

>  <FORMULA>  (1) 
C16H16ClNO3

>  <GENERIC_NAME>  (1) 
Fenoldopam

>  <INCHI_IDENTIFIER>  (1) 
InChI=1S/C16H16ClNO3/c17-15-11-5-6-18-8-13(9-1-3-10(19)4-2-9)12(11)7-14(20)16(15)21/h1-4,7,13,18-21H,5-6,8H2

>  <INCHI_KEY>  (1) 
TVURRHSHRRELCG-UHFFFAOYSA-N

>  <JCHEM_ACCEPTOR_COUNT>  (1) 
4

>  <JCHEM_AVERAGE_POLARIZABILITY>  (1) 
30.705469205452648

>  <JCHEM_BIOAVAILABILITY>  (1) 
1

>  <JCHEM_DONOR_COUNT>  (1) 
4

>  <JCHEM_FORMAL_CHARGE>  (1) 
0

>  <JCHEM_GHOSE_FILTER>  (1) 
1

>  <JCHEM_IUPAC>  (1) 
6-chloro-1-(4-hydroxyphenyl)-2,3,4,5-tetrahydro-1H-3-benzazepine-7,8-diol

>  <JCHEM_LOGP>  (1) 
1.920520197192234

>  <JCHEM_MDDR_LIKE_RULE>  (1) 
0

>  <JCHEM_NUMBER_OF_RINGS>  (1) 
3

>  <JCHEM_PHYSIOLOGICAL_CHARGE>  (1) 
1

>  <JCHEM_PKA>  (1) 
9.706175529253164

>  <JCHEM_PKA_STRONGEST_ACIDIC>  (1) 
8.117505370293962

>  <JCHEM_PKA_STRONGEST_BASIC>  (1) 
10.404716561658438

>  <JCHEM_POLAR_SURFACE_AREA>  (1) 
72.72

>  <JCHEM_REFRACTIVITY>  (1) 
82.68470000000002

>  <JCHEM_ROTATABLE_BOND_COUNT>  (1) 
1

>  <JCHEM_RULE_OF_FIVE>  (1) 
1

>  <JCHEM_TRADITIONAL_IUPAC>  (1) 
fenoldopam

>  <JCHEM_VEBER_RULE>  (1) 
0

>  <MOLECULAR_WEIGHT>  (1) 
305.756

>  <PRODUCTS>  (1) 
Corlopam

>  <SALTS>  (1) 
Fenoldopam mesylate

>  <SECONDARY_ACCESSION_NUMBERS>  (1) 
APRD00969

>  <SMILES>  (1) 
OC1=CC=C(C=C1)C1CNCCC2=C(Cl)C(O)=C(O)C=C12

>  <SYNONYMS>  (1) 
FÃ©noldopam; Fenoldopam; Fenoldopamum

$$$$
