708
     RDKit          2D

 57 59  0  0  0  0  0  0  0  0999 V2000
    3.2530   -3.1354    0.0000 S   0  0  0  0  0  0  0  0  0  0  0  0
    2.0625    1.7766    0.0000 O   0  0  0  0  0  0  0  0  0  0  0  0
    2.4751    2.4911    0.0000 O   0  0  0  0  0  0  0  0  0  0  0  0
    3.3001   -0.5879    0.0000 N   0  0  0  0  0  0  0  0  0  0  0  0
    3.7126    1.7766    0.0000 N   0  0  0  0  0  0  0  0  0  0  0  0
    3.3001    1.0621    0.0000 C   0  0  0  0  0  0  0  0  0  0  0  0
    2.5856    0.6496    0.0000 C   0  0  0  0  0  0  0  0  0  0  0  0
    4.0145    0.6496    0.0000 C   0  0  0  0  0  0  0  0  0  0  0  0
    2.5856   -0.1754    0.0000 C   0  0  0  0  0  0  0  0  0  0  0  0
    4.0145   -0.1754    0.0000 C   0  0  0  0  0  0  0  0  0  0  0  0
    2.8876    1.7766    0.0000 C   0  0  0  0  0  0  0  0  0  0  0  0
    3.3001   -1.4129    0.0000 C   0  0  0  0  0  0  0  0  0  0  0  0
    4.5376    1.7766    0.0000 C   0  0  0  0  0  0  0  0  0  0  0  0
    3.3001    2.4911    0.0000 C   0  0  0  0  0  0  0  0  0  0  0  0
    2.5856   -1.8254    0.0000 C   0  0  0  0  0  0  0  0  0  0  0  0
    3.7126    3.2055    0.0000 C   0  0  0  0  0  0  0  0  0  0  0  0
    4.9501    2.4911    0.0000 C   0  0  0  0  0  0  0  0  0  0  0  0
    4.9501    1.0621    0.0000 C   0  0  0  0  0  0  0  0  0  0  0  0
    2.5856   -2.6505    0.0000 C   0  0  0  0  0  0  0  0  0  0  0  0
    1.6500    2.4911    0.0000 C   0  0  0  0  0  0  0  0  0  0  0  0
    3.3001    3.9201    0.0000 C   0  0  0  0  0  0  0  0  0  0  0  0
    5.7751    2.4911    0.0000 C   0  0  0  0  0  0  0  0  0  0  0  0
    5.7751    1.0621    0.0000 C   0  0  0  0  0  0  0  0  0  0  0  0
    1.9182   -3.1354    0.0000 C   0  0  0  0  0  0  0  0  0  0  0  0
    6.1876    1.7766    0.0000 C   0  0  0  0  0  0  0  0  0  0  0  0
    2.1731   -3.9201    0.0000 C   0  0  0  0  0  0  0  0  0  0  0  0
    2.9981   -3.9201    0.0000 C   0  0  0  0  0  0  0  0  0  0  0  0
    0.0000    0.0000    0.0000 H   0  0  0  0  0  0  0  0  0  0  0  0
    0.0000    0.0000    0.0000 H   0  0  0  0  0  0  0  0  0  0  0  0
    0.0000    0.0000    0.0000 H   0  0  0  0  0  0  0  0  0  0  0  0
    0.0000    0.0000    0.0000 H   0  0  0  0  0  0  0  0  0  0  0  0
    0.0000    0.0000    0.0000 H   0  0  0  0  0  0  0  0  0  0  0  0
    0.0000    0.0000    0.0000 H   0  0  0  0  0  0  0  0  0  0  0  0
    0.0000    0.0000    0.0000 H   0  0  0  0  0  0  0  0  0  0  0  0
    0.0000    0.0000    0.0000 H   0  0  0  0  0  0  0  0  0  0  0  0
    0.0000    0.0000    0.0000 H   0  0  0  0  0  0  0  0  0  0  0  0
    0.0000    0.0000    0.0000 H   0  0  0  0  0  0  0  0  0  0  0  0
    0.0000    0.0000    0.0000 H   0  0  0  0  0  0  0  0  0  0  0  0
    0.0000    0.0000    0.0000 H   0  0  0  0  0  0  0  0  0  0  0  0
    0.0000    0.0000    0.0000 H   0  0  0  0  0  0  0  0  0  0  0  0
    0.0000    0.0000    0.0000 H   0  0  0  0  0  0  0  0  0  0  0  0
    0.0000    0.0000    0.0000 H   0  0  0  0  0  0  0  0  0  0  0  0
    0.0000    0.0000    0.0000 H   0  0  0  0  0  0  0  0  0  0  0  0
    0.0000    0.0000    0.0000 H   0  0  0  0  0  0  0  0  0  0  0  0
    0.0000    0.0000    0.0000 H   0  0  0  0  0  0  0  0  0  0  0  0
    0.0000    0.0000    0.0000 H   0  0  0  0  0  0  0  0  0  0  0  0
    0.0000    0.0000    0.0000 H   0  0  0  0  0  0  0  0  0  0  0  0
    0.0000    0.0000    0.0000 H   0  0  0  0  0  0  0  0  0  0  0  0
    0.0000    0.0000    0.0000 H   0  0  0  0  0  0  0  0  0  0  0  0
    0.0000    0.0000    0.0000 H   0  0  0  0  0  0  0  0  0  0  0  0
    0.0000    0.0000    0.0000 H   0  0  0  0  0  0  0  0  0  0  0  0
    0.0000    0.0000    0.0000 H   0  0  0  0  0  0  0  0  0  0  0  0
    0.0000    0.0000    0.0000 H   0  0  0  0  0  0  0  0  0  0  0  0
    0.0000    0.0000    0.0000 H   0  0  0  0  0  0  0  0  0  0  0  0
    0.0000    0.0000    0.0000 H   0  0  0  0  0  0  0  0  0  0  0  0
    0.0000    0.0000    0.0000 H   0  0  0  0  0  0  0  0  0  0  0  0
    0.0000    0.0000    0.0000 H   0  0  0  0  0  0  0  0  0  0  0  0
  1 19  1  0
  1 27  1  0
  2 11  1  0
  2 20  1  0
  3 14  2  0
  4  9  1  0
  4 10  1  0
  4 12  1  0
  5  6  1  0
  5 13  1  0
  5 14  1  0
  6  7  1  0
  6  8  1  0
  6 11  1  0
  7  9  1  0
  8 10  1  0
 12 15  1  0
 13 17  2  0
 13 18  1  0
 14 16  1  0
 15 19  1  0
 16 21  1  0
 17 22  1  0
 18 23  2  0
 19 24  2  0
 22 25  2  0
 23 25  1  0
 24 26  1  0
 26 27  2  0
  7 28  1  0
  7 29  1  0
  8 30  1  0
  8 31  1  0
  9 32  1  0
  9 33  1  0
 10 34  1  0
 10 35  1  0
 11 36  1  0
 11 37  1  0
 12 38  1  0
 12 39  1  0
 15 40  1  0
 15 41  1  0
 16 42  1  0
 16 43  1  0
 17 44  1  0
 18 45  1  0
 20 46  1  0
 20 47  1  0
 20 48  1  0
 21 49  1  0
 21 50  1  0
 21 51  1  0
 22 52  1  0
 23 53  1  0
 24 54  1  0
 25 55  1  0
 26 56  1  0
 27 57  1  0
M  END
>  <ALOGPS_LOGP>  (1) 
3.40

>  <ALOGPS_LOGS>  (1) 
-4.51

>  <ALOGPS_SOLUBILITY>  (1) 
1.20e-02 g/l

>  <DATABASE_ID>  (1) 
DB00708

>  <DATABASE_NAME>  (1) 
drugbank

>  <DRUGBANK_ID>  (1) 
DB00708

>  <DRUG_GROUPS>  (1) 
approved; investigational

>  <EXACT_MASS>  (1) 
386.202798904

>  <FORMULA>  (1) 
C22H30N2O2S

>  <GENERIC_NAME>  (1) 
Sufentanil

>  <INCHI_IDENTIFIER>  (1) 
InChI=1S/C22H30N2O2S/c1-3-21(25)24(19-8-5-4-6-9-19)22(18-26-2)12-15-23(16-13-22)14-11-20-10-7-17-27-20/h4-10,17H,3,11-16,18H2,1-2H3

>  <INCHI_KEY>  (1) 
GGCSSNBKKAUURC-UHFFFAOYSA-N

>  <INTERNATIONAL_BRANDS>  (1) 
Chronogesic; Disufen; Fastfen; Sufenta; Sufenta Forte; Sufenta mite; Sufentil; Zuftil

>  <JCHEM_ACCEPTOR_COUNT>  (1) 
3

>  <JCHEM_AVERAGE_POLARIZABILITY>  (1) 
43.851807995765

>  <JCHEM_BIOAVAILABILITY>  (1) 
1

>  <JCHEM_DONOR_COUNT>  (1) 
0

>  <JCHEM_FORMAL_CHARGE>  (1) 
0

>  <JCHEM_GHOSE_FILTER>  (1) 
1

>  <JCHEM_IUPAC>  (1) 
N-[4-(methoxymethyl)-1-[2-(thiophen-2-yl)ethyl]piperidin-4-yl]-N-phenylpropanamide

>  <JCHEM_LOGP>  (1) 
3.6051731266666662

>  <JCHEM_MDDR_LIKE_RULE>  (1) 
1

>  <JCHEM_NUMBER_OF_RINGS>  (1) 
3

>  <JCHEM_PHYSIOLOGICAL_CHARGE>  (1) 
1

>  <JCHEM_PKA_STRONGEST_BASIC>  (1) 
8.864673025343079

>  <JCHEM_POLAR_SURFACE_AREA>  (1) 
32.78

>  <JCHEM_REFRACTIVITY>  (1) 
111.41590000000004

>  <JCHEM_ROTATABLE_BOND_COUNT>  (1) 
8

>  <JCHEM_RULE_OF_FIVE>  (1) 
1

>  <JCHEM_TRADITIONAL_IUPAC>  (1) 
sufentanil

>  <JCHEM_VEBER_RULE>  (1) 
1

>  <MOLECULAR_WEIGHT>  (1) 
386.551

>  <PRODUCTS>  (1) 
Sufenta Inj 50mcg/ml; Sufentanil Citrate; Sufentanil Citrate Injection USP; Sufentanil Citrate Injection, USP; Zalviso

>  <SALTS>  (1) 
Sufentanil Citrate

>  <SECONDARY_ACCESSION_NUMBERS>  (1) 
APRD00671; DB05563

>  <SMILES>  (1) 
CCC(=O)N(C1=CC=CC=C1)C1(COC)CCN(CCC2=CC=CS2)CC1

>  <SYNONYMS>  (1) 
Sufentanil; Sufentanilo; Sufentanilum

$$$$
