
     RDKit          2D

123130  0  0  0  0  0  0  0  0999 V2000
   -1.5313    0.3875    0.0000 C   0  0  0  0  0  0  0  0  0  0  0  0
   -2.2457   -0.0250    0.0000 C   0  0  0  0  0  0  0  0  0  0  0  0
   -1.5313   -1.2625    0.0000 C   0  0  0  0  0  0  0  0  0  0  0  0
   -0.1023   -1.2625    0.0000 C   0  0  0  0  0  0  0  0  0  0  0  0
    0.6121   -0.8500    0.0000 C   0  0  0  0  0  0  0  0  0  0  0  0
   -0.1023    1.2125    0.0000 C   0  0  0  0  0  0  0  0  0  0  0  0
    2.1112    0.1326    0.0000 C   0  0  0  0  0  0  0  0  0  0  0  0
   -2.2457   -0.8500    0.0000 C   0  0  0  0  0  0  0  0  0  0  0  0
   -0.8168   -0.8500    0.0000 C   0  0  0  0  0  0  0  0  0  0  0  0
   -0.8168   -0.0250    0.0000 C   0  0  0  0  0  0  0  0  0  0  0  0
   -0.8168    0.8000    0.0000 C   0  0  0  0  0  0  0  0  0  0  0  0
   -0.1023    0.3875    0.0000 C   0  0  0  0  0  0  0  0  0  0  0  0
    1.3266    0.3875    0.0000 C   0  0  0  0  0  0  0  0  0  0  0  0
    1.3266   -0.4375    0.0000 O   0  0  0  0  0  0  0  0  0  0  0  0
    0.6121    1.6250    0.0000 C   0  0  0  0  0  0  0  0  0  0  0  0
    1.3266    1.2125    0.0000 C   0  0  0  0  0  0  0  0  0  0  0  0
    1.3266    2.0375    0.0000 C   0  0  0  0  0  0  0  0  0  0  0  0
    3.1158    2.4986    0.0000 C   0  0  0  0  0  0  0  0  0  0  0  0
    1.8575    2.9443    0.0000 C   0  0  0  0  0  0  0  0  0  0  0  0
    2.3248    2.2644    0.0000 C   0  0  0  0  0  0  0  0  0  0  0  0
    3.1374    3.3233    0.0000 O   0  0  0  0  0  0  0  0  0  0  0  0
    2.3598    3.5988    0.0000 C   0  0  0  0  0  0  0  0  0  0  0  0
    2.0838    4.3644    0.0000 O   0  0  0  0  0  0  0  0  0  0  0  0
    2.1112    1.4675    0.0000 C   0  0  0  0  0  0  0  0  0  0  0  0
    0.6121   -0.0250    0.0000 C   0  0  0  0  0  0  0  0  0  0  0  0
    2.5961    0.8000    0.0000 C   0  0  0  0  0  0  0  0  0  0  0  0
   -2.9602   -1.2625    0.0000 O   0  0  0  0  0  0  0  0  0  0  0  0
   -3.6747   -0.8500    0.0000 C   0  0  0  0  0  0  0  0  0  0  0  0
   -3.6747   -0.0250    0.0000 O   0  0  0  0  0  0  0  0  0  0  0  0
   -4.3891   -1.2625    0.0000 C   0  0  0  0  0  0  0  0  0  0  0  0
   -4.3891    0.3875    0.0000 C   0  0  0  0  0  0  0  0  0  0  0  0
   -4.3891    1.2125    0.0000 C   0  0  0  0  0  0  0  0  0  0  0  0
   -5.1036   -0.8500    0.0000 C   0  0  0  0  0  0  0  0  0  0  0  0
   -5.8181   -1.2625    0.0000 O   0  0  0  0  0  0  0  0  0  0  0  0
   -5.1036   -0.0250    0.0000 C   0  0  0  0  0  0  0  0  0  0  0  0
   -5.8181    0.3875    0.0000 O   0  0  0  0  0  0  0  0  0  0  0  0
   -6.5325   -0.0250    0.0000 C   0  0  0  0  0  0  0  0  0  0  0  0
   -7.2470    0.3875    0.0000 C   0  0  0  0  0  0  0  0  0  0  0  0
   -6.5325   -0.8500    0.0000 O   0  0  0  0  0  0  0  0  0  0  0  0
   -7.2470   -1.2625    0.0000 C   0  0  0  0  0  0  0  0  0  0  0  0
   -7.2470   -2.0875    0.0000 C   0  0  0  0  0  0  0  0  0  0  0  0
   -7.9615   -0.0250    0.0000 C   0  0  0  0  0  0  0  0  0  0  0  0
   -8.6759    0.3875    0.0000 O   0  0  0  0  0  0  0  0  0  0  0  0
   -7.9615   -0.8500    0.0000 C   0  0  0  0  0  0  0  0  0  0  0  0
   -8.6759   -1.2625    0.0000 O   0  0  0  0  0  0  0  0  0  0  0  0
   -9.3904   -0.8500    0.0000 C   0  0  0  0  0  0  0  0  0  0  0  0
  -10.1049   -1.2625    0.0000 C   0  0  0  0  0  0  0  0  0  0  0  0
   -9.3904   -0.0250    0.0000 O   0  0  0  0  0  0  0  0  0  0  0  0
  -10.1049    0.3875    0.0000 C   0  0  0  0  0  0  0  0  0  0  0  0
  -10.1049    1.2125    0.0000 C   0  0  0  0  0  0  0  0  0  0  0  0
  -10.8193   -0.0250    0.0000 C   0  0  0  0  0  0  0  0  0  0  0  0
  -11.5338    0.3875    0.0000 O   0  0  0  0  0  0  0  0  0  0  0  0
  -10.8193   -0.8500    0.0000 C   0  0  0  0  0  0  0  0  0  0  0  0
  -11.5338   -1.2625    0.0000 O   0  0  0  0  0  0  0  0  0  0  0  0
  -12.2483   -0.8500    0.0000 C   0  0  0  0  0  0  0  0  0  0  0  0
  -12.9627   -1.2625    0.0000 C   0  0  0  0  0  0  0  0  0  0  0  0
  -12.2483   -0.0250    0.0000 O   0  0  0  0  0  0  0  0  0  0  0  0
    0.0000    0.0000    0.0000 H   0  0  0  0  0  0  0  0  0  0  0  0
    0.0000    0.0000    0.0000 H   0  0  0  0  0  0  0  0  0  0  0  0
    0.0000    0.0000    0.0000 H   0  0  0  0  0  0  0  0  0  0  0  0
    0.0000    0.0000    0.0000 H   0  0  0  0  0  0  0  0  0  0  0  0
    0.0000    0.0000    0.0000 H   0  0  0  0  0  0  0  0  0  0  0  0
    0.0000    0.0000    0.0000 H   0  0  0  0  0  0  0  0  0  0  0  0
    0.0000    0.0000    0.0000 H   0  0  0  0  0  0  0  0  0  0  0  0
    0.0000    0.0000    0.0000 H   0  0  0  0  0  0  0  0  0  0  0  0
    0.0000    0.0000    0.0000 H   0  0  0  0  0  0  0  0  0  0  0  0
    0.0000    0.0000    0.0000 H   0  0  0  0  0  0  0  0  0  0  0  0
    0.0000    0.0000    0.0000 H   0  0  0  0  0  0  0  0  0  0  0  0
    0.0000    0.0000    0.0000 H   0  0  0  0  0  0  0  0  0  0  0  0
    0.0000    0.0000    0.0000 H   0  0  0  0  0  0  0  0  0  0  0  0
    0.0000    0.0000    0.0000 H   0  0  0  0  0  0  0  0  0  0  0  0
    0.0000    0.0000    0.0000 H   0  0  0  0  0  0  0  0  0  0  0  0
    0.0000    0.0000    0.0000 H   0  0  0  0  0  0  0  0  0  0  0  0
    0.0000    0.0000    0.0000 H   0  0  0  0  0  0  0  0  0  0  0  0
    0.0000    0.0000    0.0000 H   0  0  0  0  0  0  0  0  0  0  0  0
    0.0000    0.0000    0.0000 H   0  0  0  0  0  0  0  0  0  0  0  0
    0.0000    0.0000    0.0000 H   0  0  0  0  0  0  0  0  0  0  0  0
    0.0000    0.0000    0.0000 H   0  0  0  0  0  0  0  0  0  0  0  0
    0.0000    0.0000    0.0000 H   0  0  0  0  0  0  0  0  0  0  0  0
    0.0000    0.0000    0.0000 H   0  0  0  0  0  0  0  0  0  0  0  0
    0.0000    0.0000    0.0000 H   0  0  0  0  0  0  0  0  0  0  0  0
    0.0000    0.0000    0.0000 H   0  0  0  0  0  0  0  0  0  0  0  0
    0.0000    0.0000    0.0000 H   0  0  0  0  0  0  0  0  0  0  0  0
    0.0000    0.0000    0.0000 H   0  0  0  0  0  0  0  0  0  0  0  0
    0.0000    0.0000    0.0000 H   0  0  0  0  0  0  0  0  0  0  0  0
    0.0000    0.0000    0.0000 H   0  0  0  0  0  0  0  0  0  0  0  0
    0.0000    0.0000    0.0000 H   0  0  0  0  0  0  0  0  0  0  0  0
    0.0000    0.0000    0.0000 H   0  0  0  0  0  0  0  0  0  0  0  0
    0.0000    0.0000    0.0000 H   0  0  0  0  0  0  0  0  0  0  0  0
    0.0000    0.0000    0.0000 H   0  0  0  0  0  0  0  0  0  0  0  0
    0.0000    0.0000    0.0000 H   0  0  0  0  0  0  0  0  0  0  0  0
    0.0000    0.0000    0.0000 H   0  0  0  0  0  0  0  0  0  0  0  0
    0.0000    0.0000    0.0000 H   0  0  0  0  0  0  0  0  0  0  0  0
    0.0000    0.0000    0.0000 H   0  0  0  0  0  0  0  0  0  0  0  0
    0.0000    0.0000    0.0000 H   0  0  0  0  0  0  0  0  0  0  0  0
    0.0000    0.0000    0.0000 H   0  0  0  0  0  0  0  0  0  0  0  0
    0.0000    0.0000    0.0000 H   0  0  0  0  0  0  0  0  0  0  0  0
    0.0000    0.0000    0.0000 H   0  0  0  0  0  0  0  0  0  0  0  0
    0.0000    0.0000    0.0000 H   0  0  0  0  0  0  0  0  0  0  0  0
    0.0000    0.0000    0.0000 H   0  0  0  0  0  0  0  0  0  0  0  0
    0.0000    0.0000    0.0000 H   0  0  0  0  0  0  0  0  0  0  0  0
    0.0000    0.0000    0.0000 H   0  0  0  0  0  0  0  0  0  0  0  0
    0.0000    0.0000    0.0000 H   0  0  0  0  0  0  0  0  0  0  0  0
    0.0000    0.0000    0.0000 H   0  0  0  0  0  0  0  0  0  0  0  0
    0.0000    0.0000    0.0000 H   0  0  0  0  0  0  0  0  0  0  0  0
    0.0000    0.0000    0.0000 H   0  0  0  0  0  0  0  0  0  0  0  0
    0.0000    0.0000    0.0000 H   0  0  0  0  0  0  0  0  0  0  0  0
    0.0000    0.0000    0.0000 H   0  0  0  0  0  0  0  0  0  0  0  0
    0.0000    0.0000    0.0000 H   0  0  0  0  0  0  0  0  0  0  0  0
    0.0000    0.0000    0.0000 H   0  0  0  0  0  0  0  0  0  0  0  0
    0.0000    0.0000    0.0000 H   0  0  0  0  0  0  0  0  0  0  0  0
    0.0000    0.0000    0.0000 H   0  0  0  0  0  0  0  0  0  0  0  0
    0.0000    0.0000    0.0000 H   0  0  0  0  0  0  0  0  0  0  0  0
    0.0000    0.0000    0.0000 H   0  0  0  0  0  0  0  0  0  0  0  0
    0.0000    0.0000    0.0000 H   0  0  0  0  0  0  0  0  0  0  0  0
    0.0000    0.0000    0.0000 H   0  0  0  0  0  0  0  0  0  0  0  0
    0.0000    0.0000    0.0000 H   0  0  0  0  0  0  0  0  0  0  0  0
    0.0000    0.0000    0.0000 H   0  0  0  0  0  0  0  0  0  0  0  0
    0.0000    0.0000    0.0000 H   0  0  0  0  0  0  0  0  0  0  0  0
    0.0000    0.0000    0.0000 H   0  0  0  0  0  0  0  0  0  0  0  0
    0.0000    0.0000    0.0000 H   0  0  0  0  0  0  0  0  0  0  0  0
    0.0000    0.0000    0.0000 H   0  0  0  0  0  0  0  0  0  0  0  0
    0.0000    0.0000    0.0000 H   0  0  0  0  0  0  0  0  0  0  0  0
  1  2  1  0
  1 10  1  0
  2  8  1  0
  8  3  1  0
  3  9  1  0
 12 10  1  0
 10  9  1  0
  9  4  1  0
  4  5  1  0
  5 25  1  0
 25 13  1  0
 12 25  1  0
  6 12  1  0
 15  6  1  0
 15 16  1  0
 24 16  1  0
 16 13  1  0
 13  7  1  0
 24 26  1  0
  7 26  1  0
  8 27  1  6
 10 11  1  1
 13 14  1  1
 16 17  1  1
 24 20  1  6
 18 21  1  0
 18 20  1  0
 21 22  1  0
 22 19  1  0
 19 20  2  0
 22 23  2  0
 28 27  1  1
 30 28  1  0
 28 29  1  0
 31 35  1  0
 31 29  1  0
 35 33  1  0
 33 30  1  0
 31 32  1  1
 33 34  1  1
 35 36  1  1
 37 36  1  6
 39 37  1  0
 38 37  1  0
 38 42  1  0
 42 44  1  0
 44 40  1  0
 40 39  1  0
 40 41  1  6
 42 43  1  6
 44 45  1  6
 46 45  1  1
 47 46  1  0
 46 48  1  0
 49 51  1  0
 49 48  1  0
 51 53  1  0
 53 47  1  0
 49 50  1  1
 51 52  1  1
 53 54  1  1
 54 55  1  0
 55 56  1  0
 55 57  2  0
  1 58  1  0
  1 59  1  0
  2 60  1  0
  2 61  1  0
  3 62  1  0
  3 63  1  0
  4 64  1  0
  4 65  1  0
  5 66  1  0
  5 67  1  0
  6 68  1  0
  6 69  1  0
  7 70  1  0
  7 71  1  0
  8 72  1  0
  9 73  1  1
 11 74  1  0
 11 75  1  0
 11 76  1  0
 12 77  1  6
 14 78  1  0
 15 79  1  0
 15 80  1  0
 17 81  1  0
 17 82  1  0
 17 83  1  0
 18 84  1  0
 18 85  1  0
 19 86  1  0
 24 87  1  0
 25 88  1  1
 26 89  1  0
 26 90  1  0
 28 91  1  0
 30 92  1  0
 30 93  1  0
 31 94  1  0
 32 95  1  0
 32 96  1  0
 32 97  1  0
 33 98  1  0
 34 99  1  0
 35100  1  0
 37101  1  0
 38102  1  0
 38103  1  0
 40104  1  0
 41105  1  0
 41106  1  0
 41107  1  0
 42108  1  0
 43109  1  0
 44110  1  0
 46111  1  0
 47112  1  0
 47113  1  0
 49114  1  0
 50115  1  0
 50116  1  0
 50117  1  0
 51118  1  0
 52119  1  0
 53120  1  0
 56121  1  0
 56122  1  0
 56123  1  0
M  END
>  <ALOGPS_LOGP>  (1) 
2.87

>  <ALOGPS_LOGS>  (1) 
-4.82

>  <ALOGPS_SOLUBILITY>  (1) 
1.23e-02 g/l

>  <DATABASE_ID>  (1) 
DB00511

>  <DATABASE_NAME>  (1) 
drugbank

>  <DRUGBANK_ID>  (1) 
DB00511

>  <DRUG_GROUPS>  (1) 
approved

>  <EXACT_MASS>  (1) 
806.44525682

>  <FORMULA>  (1) 
C43H66O14

>  <GENERIC_NAME>  (1) 
Acetyldigitoxin

>  <INCHI_IDENTIFIER>  (1) 
InChI=1S/C43H66O14/c1-21-38(48)33(54-24(4)44)19-37(51-21)57-40-23(3)53-36(18-32(40)46)56-39-22(2)52-35(17-31(39)45)55-27-9-12-41(5)26(16-27)7-8-30-29(41)10-13-42(6)28(11-14-43(30,42)49)25-15-34(47)50-20-25/h15,21-23,26-33,35-40,45-46,48-49H,7-14,16-20H2,1-6H3/t21-,22-,23-,26-,27+,28-,29+,30-,31+,32+,33+,35+,36+,37+,38-,39-,40-,41+,42-,43+/m1/s1

>  <INCHI_KEY>  (1) 
HPMZBILYSWLILX-UMDUKNJSSA-N

>  <JCHEM_ACCEPTOR_COUNT>  (1) 
12

>  <JCHEM_AVERAGE_POLARIZABILITY>  (1) 
87.94543079481707

>  <JCHEM_BIOAVAILABILITY>  (1) 
0

>  <JCHEM_DONOR_COUNT>  (1) 
4

>  <JCHEM_FORMAL_CHARGE>  (1) 
0

>  <JCHEM_GHOSE_FILTER>  (1) 
0

>  <JCHEM_IUPAC>  (1) 
(2R,3R,4S,6S)-3-hydroxy-6-{[(2R,3S,4S,6S)-4-hydroxy-6-{[(2R,3S,4S,6R)-4-hydroxy-6-{[(1S,2S,5S,7R,10R,11S,14R,15R)-11-hydroxy-2,15-dimethyl-14-(5-oxo-2,5-dihydrofuran-3-yl)tetracyclo[8.7.0.0²,⁷.0¹¹,¹⁵]heptadecan-5-yl]oxy}-2-methyloxan-3-yl]oxy}-2-methyloxan-3-yl]oxy}-2-methyloxan-4-yl acetate

>  <JCHEM_LOGP>  (1) 
4.0386171493333345

>  <JCHEM_MDDR_LIKE_RULE>  (1) 
1

>  <JCHEM_NUMBER_OF_RINGS>  (1) 
8

>  <JCHEM_PHYSIOLOGICAL_CHARGE>  (1) 
0

>  <JCHEM_PKA>  (1) 
13.05997602246958

>  <JCHEM_PKA_STRONGEST_ACIDIC>  (1) 
7.182635647025093

>  <JCHEM_PKA_STRONGEST_BASIC>  (1) 
0.24222921557030686

>  <JCHEM_POLAR_SURFACE_AREA>  (1) 
188.89999999999998

>  <JCHEM_REFRACTIVITY>  (1) 
200.86880000000002

>  <JCHEM_ROTATABLE_BOND_COUNT>  (1) 
9

>  <JCHEM_RULE_OF_FIVE>  (1) 
0

>  <JCHEM_TRADITIONAL_IUPAC>  (1) 
acetyldigitoxin

>  <JCHEM_VEBER_RULE>  (1) 
0

>  <MOLECULAR_WEIGHT>  (1) 
806.9757

>  <SECONDARY_ACCESSION_NUMBERS>  (1) 
APRD01334

>  <SMILES>  (1) 
[H][C@@]1(CC[C@]2(O)[C@]3([H])CC[C@]4([H])C[C@H](CC[C@]4(C)[C@@]3([H])CC[C@]12C)O[C@H]1C[C@H](O)[C@H](O[C@H]2C[C@H](O)[C@H](O[C@H]3C[C@H](OC(C)=O)[C@H](O)[C@@H](C)O3)[C@@H](C)O2)[C@@H](C)O1)C1=CC(=O)OC1

>  <SYNONYMS>  (1) 
Acetildigitoxina; Acetyl-digitoxin-alpha; Acetyldiginatin; Acetyldigitoxinum; Acetylgitoxin; alpha-Acetyldigitoxin; alpha-Acetylgitaloxin; alpha-Monoacetyldigitoxin; Desglucolanatoside A; Digitoxin 3'''-acetate

$$$$
