628
     RDKit          2D

 33 35  0  0  1  0  0  0  0  0999 V2000
    2.5467   -2.7000    0.0000 Cl  0  0  0  0  0  0  0  0  0  0  0  0
    2.3403    2.0183    0.0000 O   0  0  0  0  0  0  0  0  0  0  0  0
    4.7038    2.0801    0.0000 O   0  0  0  0  0  0  0  0  0  0  0  0
    3.4164    2.7000    0.0000 O   0  0  0  0  0  0  0  0  0  0  0  0
    2.1838    0.6300    0.0000 N   0  0  0  0  0  0  0  0  0  0  0  0
    4.0375    0.6300    0.0000 N   0  0  0  0  0  0  0  0  0  0  0  0
    3.1106   -0.5322    0.0000 C   0  0  0  0  0  0  0  0  0  0  0  0
    3.8540   -0.1742    0.0000 C   0  0  0  0  0  0  0  0  0  0  0  0
    2.3674   -0.1742    0.0000 C   0  0  0  0  0  0  0  0  0  0  0  0
    3.5231    1.2751    0.0000 C   0  0  0  0  0  0  0  0  0  0  0  0
    4.4989   -0.6886    0.0000 C   0  0  0  0  0  0  0  0  0  0  0  0
    2.6981    1.2751    0.0000 C   0  0  0  0  0  0  0  0  0  0  0  0
    3.1881   -1.3880    0.0000 C   0  0  0  0  0  0  0  0  0  0  0  0
    1.6500   -0.6473    0.0000 C   0  0  0  0  0  0  0  0  0  0  0  0
    2.4818   -1.8776    0.0000 C   0  0  0  0  0  0  0  0  0  0  0  0
    1.7076   -1.5047    0.0000 C   0  0  0  0  0  0  0  0  0  0  0  0
    5.2669   -0.3872    0.0000 C   0  0  0  0  0  0  0  0  0  0  0  0
    4.3760   -1.5044    0.0000 C   0  0  0  0  0  0  0  0  0  0  0  0
    3.8811    2.0183    0.0000 C   0  0  0  0  0  0  0  0  0  0  0  0
    5.9120   -0.9016    0.0000 C   0  0  0  0  0  0  0  0  0  0  0  0
    5.0210   -2.0188    0.0000 C   0  0  0  0  0  0  0  0  0  0  0  0
    5.7890   -1.7174    0.0000 C   0  0  0  0  0  0  0  0  0  0  0  0
    0.0000    0.0000    0.0000 H   0  0  0  0  0  0  0  0  0  0  0  0
    0.0000    0.0000    0.0000 H   0  0  0  0  0  0  0  0  0  0  0  0
    0.0000    0.0000    0.0000 H   0  0  0  0  0  0  0  0  0  0  0  0
    0.0000    0.0000    0.0000 H   0  0  0  0  0  0  0  0  0  0  0  0
    0.0000    0.0000    0.0000 H   0  0  0  0  0  0  0  0  0  0  0  0
    0.0000    0.0000    0.0000 H   0  0  0  0  0  0  0  0  0  0  0  0
    0.0000    0.0000    0.0000 H   0  0  0  0  0  0  0  0  0  0  0  0
    0.0000    0.0000    0.0000 H   0  0  0  0  0  0  0  0  0  0  0  0
    0.0000    0.0000    0.0000 H   0  0  0  0  0  0  0  0  0  0  0  0
    0.0000    0.0000    0.0000 H   0  0  0  0  0  0  0  0  0  0  0  0
    0.0000    0.0000    0.0000 H   0  0  0  0  0  0  0  0  0  0  0  0
  1 15  1  0
  2 12  2  0
  3 19  1  0
  4 19  2  0
  5  9  1  0
  5 12  1  0
  6  8  2  0
  6 10  1  0
  7  8  1  0
  7  9  2  0
  7 13  1  0
  8 11  1  0
  9 14  1  0
 10 12  1  0
 10 19  1  0
 11 17  2  0
 11 18  1  0
 13 15  2  0
 14 16  2  0
 15 16  1  0
 17 20  1  0
 18 21  2  0
 20 22  2  0
 21 22  1  0
  3 23  1  0
  5 24  1  0
 10 25  1  0
 13 26  1  0
 14 27  1  0
 16 28  1  0
 17 29  1  0
 18 30  1  0
 20 31  1  0
 21 32  1  0
 22 33  1  0
M  END
>  <ALOGPS_LOGP>  (1) 
2.68

>  <ALOGPS_LOGS>  (1) 
-4.10

>  <ALOGPS_SOLUBILITY>  (1) 
2.48e-02 g/l

>  <DATABASE_ID>  (1) 
DB00628

>  <DATABASE_NAME>  (1) 
drugbank

>  <DRUGBANK_ID>  (1) 
DB00628

>  <DRUG_GROUPS>  (1) 
approved; illicit

>  <EXACT_MASS>  (1) 
314.045819935

>  <FORMULA>  (1) 
C16H11ClN2O3

>  <GENERIC_NAME>  (1) 
Clorazepate

>  <INCHI_IDENTIFIER>  (1) 
InChI=1S/C16H11ClN2O3/c17-10-6-7-12-11(8-10)13(9-4-2-1-3-5-9)19-14(16(21)22)15(20)18-12/h1-8,14H,(H,18,20)(H,21,22)

>  <INCHI_KEY>  (1) 
XDDJGVMJFWAHJX-UHFFFAOYSA-N

>  <INTERNATIONAL_BRANDS>  (1) 
Anksen; Calner; Cloranxen; Clorazepatum; Clozene; Dipot; Flulium; Gen-xene; Justum; Manotran; Medipax; Mendon; Polizep; Tencilan; Trancap; Transene; Tranxen; TranxÃ¨ne; Tranxene; Tranxilene; Tranxilium; Zetran-5

>  <JCHEM_ACCEPTOR_COUNT>  (1) 
4

>  <JCHEM_AVERAGE_POLARIZABILITY>  (1) 
30.625736988123027

>  <JCHEM_BIOAVAILABILITY>  (1) 
1

>  <JCHEM_DONOR_COUNT>  (1) 
2

>  <JCHEM_FORMAL_CHARGE>  (1) 
0

>  <JCHEM_GHOSE_FILTER>  (1) 
1

>  <JCHEM_IUPAC>  (1) 
7-chloro-2-oxo-5-phenyl-2,3-dihydro-1H-1,4-benzodiazepine-3-carboxylic acid

>  <JCHEM_LOGP>  (1) 
3.206338529999999

>  <JCHEM_MDDR_LIKE_RULE>  (1) 
0

>  <JCHEM_NUMBER_OF_RINGS>  (1) 
3

>  <JCHEM_PHYSIOLOGICAL_CHARGE>  (1) 
-1

>  <JCHEM_PKA>  (1) 
12.233953140202436

>  <JCHEM_PKA_STRONGEST_ACIDIC>  (1) 
3.3205174094454324

>  <JCHEM_PKA_STRONGEST_BASIC>  (1) 
-0.6426618306823179

>  <JCHEM_POLAR_SURFACE_AREA>  (1) 
78.75999999999999

>  <JCHEM_REFRACTIVITY>  (1) 
82.67610000000002

>  <JCHEM_ROTATABLE_BOND_COUNT>  (1) 
2

>  <JCHEM_RULE_OF_FIVE>  (1) 
1

>  <JCHEM_TRADITIONAL_IUPAC>  (1) 
clorazepate

>  <JCHEM_VEBER_RULE>  (1) 
0

>  <MOLECULAR_WEIGHT>  (1) 
314.723

>  <PRODUCTS>  (1) 
Clorazepate; Clorazepate Dipotassium; Clorazepate dipotassium; Novo-clopate Cap 15mg; Novo-clopate Cap 3.75mg; Novo-clopate Cap 7.5mg; Tranxene Cap 15mg; Tranxene Cap 3.75mg; Tranxene Cap 7.5mg; Tranxene T-Tab

>  <SALTS>  (1) 
Clorazepate dipotassium

>  <SECONDARY_ACCESSION_NUMBERS>  (1) 
APRD00881

>  <SMILES>  (1) 
OC(=O)C1N=C(C2=CC=CC=C2)C2=C(NC1=O)C=CC(Cl)=C2

>  <SYNONYMS>  (1) 
Clorazepic acid

$$$$
