558
     RDKit          2D

 43 43  0  0  1  0  0  0  0  0999 V2000
    4.9509   -0.5693    0.0000 O   0  0  0  0  0  0  0  0  0  0  0  0
    4.2365    1.4933    0.0000 O   0  0  0  0  0  0  0  0  0  0  0  0
    3.5220   -0.5693    0.0000 O   0  0  0  0  0  0  0  0  0  0  0  0
    2.0930    0.2558    0.0000 O   0  0  0  0  0  0  0  0  0  0  0  0
    7.0944    1.4933    0.0000 O   0  0  0  0  0  0  0  0  0  0  0  0
    6.3799   -2.2193    0.0000 O   0  0  0  0  0  0  0  0  0  0  0  0
    4.9509   -2.2193    0.0000 O   0  0  0  0  0  0  0  0  0  0  0  0
    5.6655    1.4933    0.0000 N   0  0  0  0  0  0  0  0  0  0  0  0
    7.0944    0.6683    0.0000 N   0  0  0  0  0  0  0  0  0  0  0  0
    8.5234    0.6683    0.0000 N   0  0  0  0  0  0  0  0  0  0  0  0
    7.8089   -0.5693    0.0000 N   0  0  0  0  0  0  0  0  0  0  0  0
    4.9509    0.2558    0.0000 C   0  0  0  0  0  0  0  0  0  0  0  0
    5.6655    0.6683    0.0000 C   0  0  0  0  0  0  0  0  0  0  0  0
    4.2365    0.6683    0.0000 C   0  0  0  0  0  0  0  0  0  0  0  0
    6.3799    0.2558    0.0000 C   0  0  0  0  0  0  0  0  0  0  0  0
    3.5220    0.2558    0.0000 C   0  0  0  0  0  0  0  0  0  0  0  0
    6.3799   -0.5693    0.0000 C   0  0  0  0  0  0  0  0  0  0  0  0
    5.6655   -0.9818    0.0000 C   0  0  0  0  0  0  0  0  0  0  0  0
    2.8075    0.6683    0.0000 C   0  0  0  0  0  0  0  0  0  0  0  0
    6.3799    1.9058    0.0000 C   0  0  0  0  0  0  0  0  0  0  0  0
    5.6655   -1.8068    0.0000 C   0  0  0  0  0  0  0  0  0  0  0  0
    7.8089    0.2558    0.0000 C   0  0  0  0  0  0  0  0  0  0  0  0
    6.3799    2.7308    0.0000 C   0  0  0  0  0  0  0  0  0  0  0  0
    0.0000    0.0000    0.0000 H   0  0  0  0  0  0  0  0  0  0  0  0
    0.0000    0.0000    0.0000 H   0  0  0  0  0  0  0  0  0  0  0  0
    0.0000    0.0000    0.0000 H   0  0  0  0  0  0  0  0  0  0  0  0
    0.0000    0.0000    0.0000 H   0  0  0  0  0  0  0  0  0  0  0  0
    0.0000    0.0000    0.0000 H   0  0  0  0  0  0  0  0  0  0  0  0
    0.0000    0.0000    0.0000 H   0  0  0  0  0  0  0  0  0  0  0  0
    0.0000    0.0000    0.0000 H   0  0  0  0  0  0  0  0  0  0  0  0
    0.0000    0.0000    0.0000 H   0  0  0  0  0  0  0  0  0  0  0  0
    0.0000    0.0000    0.0000 H   0  0  0  0  0  0  0  0  0  0  0  0
    0.0000    0.0000    0.0000 H   0  0  0  0  0  0  0  0  0  0  0  0
    0.0000    0.0000    0.0000 H   0  0  0  0  0  0  0  0  0  0  0  0
    0.0000    0.0000    0.0000 H   0  0  0  0  0  0  0  0  0  0  0  0
    0.0000    0.0000    0.0000 H   0  0  0  0  0  0  0  0  0  0  0  0
    0.0000    0.0000    0.0000 H   0  0  0  0  0  0  0  0  0  0  0  0
    0.0000    0.0000    0.0000 H   0  0  0  0  0  0  0  0  0  0  0  0
    0.0000    0.0000    0.0000 H   0  0  0  0  0  0  0  0  0  0  0  0
    0.0000    0.0000    0.0000 H   0  0  0  0  0  0  0  0  0  0  0  0
    0.0000    0.0000    0.0000 H   0  0  0  0  0  0  0  0  0  0  0  0
    0.0000    0.0000    0.0000 H   0  0  0  0  0  0  0  0  0  0  0  0
    0.0000    0.0000    0.0000 H   0  0  0  0  0  0  0  0  0  0  0  0
  1 12  1  0
  1 18  1  0
 14  2  1  1
 16  3  1  6
  4 19  1  0
  5 20  2  0
  6 21  1  0
  7 21  2  0
 13  8  1  6
  8 20  1  0
 15  9  1  6
  9 22  2  3
 10 22  1  0
 11 22  1  0
 12 13  1  0
 12 14  1  0
 13 15  1  0
 14 16  1  0
 15 17  1  0
 16 19  1  0
 17 18  2  0
 18 21  1  0
 20 23  1  0
  2 24  1  0
  3 25  1  0
  4 26  1  0
  6 27  1  0
  8 28  1  0
 10 29  1  0
 10 30  1  0
 11 31  1  0
 11 32  1  0
 12 33  1  6
 13 34  1  0
 14 35  1  0
 15 36  1  0
 16 37  1  0
 17 38  1  0
 19 39  1  0
 19 40  1  0
 23 41  1  0
 23 42  1  0
 23 43  1  0
M  END
>  <ALOGPS_LOGP>  (1) 
-2.30

>  <ALOGPS_LOGS>  (1) 
-1.66

>  <ALOGPS_SOLUBILITY>  (1) 
7.31e+00 g/l

>  <DATABASE_ID>  (1) 
DB00558

>  <DATABASE_NAME>  (1) 
drugbank

>  <DRUGBANK_ID>  (1) 
DB00558

>  <DRUG_GROUPS>  (1) 
approved; investigational

>  <EXACT_MASS>  (1) 
332.133199014

>  <FORMULA>  (1) 
C12H20N4O7

>  <GENERIC_NAME>  (1) 
Zanamivir

>  <INCHI_IDENTIFIER>  (1) 
InChI=1S/C12H20N4O7/c1-4(18)15-8-5(16-12(13)14)2-7(11(21)22)23-10(8)9(20)6(19)3-17/h2,5-6,8-10,17,19-20H,3H2,1H3,(H,15,18)(H,21,22)(H4,13,14,16)/t5-,6+,8+,9+,10+/m0/s1

>  <INCHI_KEY>  (1) 
ARAIBEBZBOPLMB-UFGQHTETSA-N

>  <JCHEM_ACCEPTOR_COUNT>  (1) 
10

>  <JCHEM_AVERAGE_POLARIZABILITY>  (1) 
31.239618997916516

>  <JCHEM_BIOAVAILABILITY>  (1) 
0

>  <JCHEM_DONOR_COUNT>  (1) 
7

>  <JCHEM_FORMAL_CHARGE>  (1) 
0

>  <JCHEM_GHOSE_FILTER>  (1) 
0

>  <JCHEM_IUPAC>  (1) 
(2R,3R,4S)-4-[(diaminomethylidene)amino]-3-acetamido-2-[(1R,2R)-1,2,3-trihydroxypropyl]-3,4-dihydro-2H-pyran-6-carboxylic acid

>  <JCHEM_LOGP>  (1) 
-5.827718904459089

>  <JCHEM_MDDR_LIKE_RULE>  (1) 
0

>  <JCHEM_NUMBER_OF_RINGS>  (1) 
1

>  <JCHEM_PHYSIOLOGICAL_CHARGE>  (1) 
0

>  <JCHEM_PKA>  (1) 
12.792990691849301

>  <JCHEM_PKA_STRONGEST_ACIDIC>  (1) 
3.253616213833814

>  <JCHEM_PKA_STRONGEST_BASIC>  (1) 
11.933899630682804

>  <JCHEM_POLAR_SURFACE_AREA>  (1) 
200.72000000000003

>  <JCHEM_REFRACTIVITY>  (1) 
76.19000000000003

>  <JCHEM_ROTATABLE_BOND_COUNT>  (1) 
6

>  <JCHEM_RULE_OF_FIVE>  (1) 
0

>  <JCHEM_TRADITIONAL_IUPAC>  (1) 
zanamivir

>  <JCHEM_VEBER_RULE>  (1) 
0

>  <MOLECULAR_WEIGHT>  (1) 
332.3098

>  <PRODUCTS>  (1) 
Relenza

>  <SECONDARY_ACCESSION_NUMBERS>  (1) 
APRD00378

>  <SMILES>  (1) 
[H][C@]1(OC(=C[C@H](N=C(N)N)[C@H]1NC(C)=O)C(O)=O)[C@H](O)[C@H](O)CO

$$$$
