
     RDKit          2D

 45 47  0  0  1  0  0  0  0  0999 V2000
   12.2406   -9.9059    0.0000 S   0  0  0  0  0  0  0  0  0  0  0  0
   12.9551  -10.3184    0.0000 C   0  0  0  0  0  0  0  0  0  0  0  0
   12.9551  -11.1434    0.0000 C   0  0  0  0  0  0  0  0  0  0  0  0
   12.2406  -11.5559    0.0000 C   0  0  0  0  0  0  0  0  0  0  0  0
   11.5262  -10.3184    0.0000 C   0  0  0  0  0  0  0  0  0  0  0  0
   11.5262  -11.1434    0.0000 N   0  0  0  0  0  0  0  0  0  0  0  0
   10.7012  -11.1434    0.0000 C   0  0  0  0  0  0  0  0  0  0  0  0
   10.7012  -10.3184    0.0000 C   0  0  0  0  0  0  0  0  0  0  0  0
    9.9867  -11.5559    0.0000 O   0  0  0  0  0  0  0  0  0  0  0  0
   12.2406  -12.3809    0.0000 C   0  0  0  0  0  0  0  0  0  0  0  0
   12.9551  -12.7934    0.0000 O   0  0  0  0  0  0  0  0  0  0  0  0
   11.5262  -12.7934    0.0000 O   0  0  0  0  0  0  0  0  0  0  0  0
   13.6696  -11.5559    0.0000 C   0  0  0  0  0  0  0  0  0  0  0  0
   14.3841  -11.1434    0.0000 C   0  0  0  0  0  0  0  0  0  0  0  0
    9.9867   -9.9059    0.0000 N   0  0  0  0  0  0  0  0  0  0  0  0
    9.2722  -10.3184    0.0000 C   0  0  0  0  0  0  0  0  0  0  0  0
    8.5577   -9.9059    0.0000 C   0  0  0  0  0  0  0  0  0  0  0  0
    9.2722  -11.1434    0.0000 O   0  0  0  0  0  0  0  0  0  0  0  0
    7.8432  -10.3184    0.0000 C   0  0  0  0  0  0  0  0  0  0  0  0
    8.5577   -9.0809    0.0000 N   0  0  0  0  0  0  0  0  0  0  0  0
    9.2722   -8.6684    0.0000 O   0  0  0  0  0  0  0  0  0  0  0  0
    9.2722   -7.8434    0.0000 C   0  0  0  0  0  0  0  0  0  0  0  0
    9.9867   -7.4309    0.0000 C   0  0  0  0  0  0  0  0  0  0  0  0
   10.7012   -7.8434    0.0000 O   0  0  0  0  0  0  0  0  0  0  0  0
    9.9867   -6.6059    0.0000 O   0  0  0  0  0  0  0  0  0  0  0  0
    7.7570  -11.1389    0.0000 C   0  0  0  0  0  0  0  0  0  0  0  0
    6.9501  -11.3104    0.0000 S   0  0  0  0  0  0  0  0  0  0  0  0
    6.5376  -10.5959    0.0000 C   0  0  0  0  0  0  0  0  0  0  0  0
    7.0896   -9.9828    0.0000 N   0  0  0  0  0  0  0  0  0  0  0  0
    5.7170  -10.5097    0.0000 N   0  0  0  0  0  0  0  0  0  0  0  0
    0.0000    0.0000    0.0000 H   0  0  0  0  0  0  0  0  0  0  0  0
    0.0000    0.0000    0.0000 H   0  0  0  0  0  0  0  0  0  0  0  0
    0.0000    0.0000    0.0000 H   0  0  0  0  0  0  0  0  0  0  0  0
    0.0000    0.0000    0.0000 H   0  0  0  0  0  0  0  0  0  0  0  0
    0.0000    0.0000    0.0000 H   0  0  0  0  0  0  0  0  0  0  0  0
    0.0000    0.0000    0.0000 H   0  0  0  0  0  0  0  0  0  0  0  0
    0.0000    0.0000    0.0000 H   0  0  0  0  0  0  0  0  0  0  0  0
    0.0000    0.0000    0.0000 H   0  0  0  0  0  0  0  0  0  0  0  0
    0.0000    0.0000    0.0000 H   0  0  0  0  0  0  0  0  0  0  0  0
    0.0000    0.0000    0.0000 H   0  0  0  0  0  0  0  0  0  0  0  0
    0.0000    0.0000    0.0000 H   0  0  0  0  0  0  0  0  0  0  0  0
    0.0000    0.0000    0.0000 H   0  0  0  0  0  0  0  0  0  0  0  0
    0.0000    0.0000    0.0000 H   0  0  0  0  0  0  0  0  0  0  0  0
    0.0000    0.0000    0.0000 H   0  0  0  0  0  0  0  0  0  0  0  0
    0.0000    0.0000    0.0000 H   0  0  0  0  0  0  0  0  0  0  0  0
 13 14  2  3
  6  7  1  0
  8 15  1  1
  7  8  1  0
 15 16  1  0
  8  5  1  0
 16 17  1  0
  2  3  1  0
 16 18  2  0
  7  9  2  0
 17 19  1  0
  3  4  2  0
 17 20  2  0
  5  6  1  0
 20 21  1  0
 21 22  1  0
 10 11  1  0
 22 23  1  0
 10 12  2  0
 23 24  1  0
  4 10  1  0
 23 25  2  0
 19 26  2  0
  6  4  1  0
  5  1  1  0
  3 13  1  0
 26 27  1  0
 27 28  1  0
 28 29  2  0
 29 19  1  0
  1  2  1  0
 28 30  1  0
  2 31  1  0
  2 32  1  0
  5 33  1  6
  8 34  1  0
 11 35  1  0
 13 36  1  0
 14 37  1  0
 14 38  1  0
 15 39  1  0
 22 40  1  0
 22 41  1  0
 24 42  1  0
 26 43  1  0
 30 44  1  0
 30 45  1  0
M  END
>  <ALOGPS_LOGP>  (1) 
0.25

>  <ALOGPS_LOGS>  (1) 
-3.64

>  <ALOGPS_SOLUBILITY>  (1) 
1.04e-01 g/l

>  <DATABASE_ID>  (1) 
DB00671

>  <DATABASE_NAME>  (1) 
drugbank

>  <DRUGBANK_ID>  (1) 
DB00671

>  <DRUG_GROUPS>  (1) 
approved

>  <EXACT_MASS>  (1) 
453.041289239

>  <FORMULA>  (1) 
C16H15N5O7S2

>  <GENERIC_NAME>  (1) 
Cefixime

>  <INCHI_IDENTIFIER>  (1) 
InChI=1S/C16H15N5O7S2/c1-2-6-4-29-14-10(13(25)21(14)11(6)15(26)27)19-12(24)9(20-28-3-8(22)23)7-5-30-16(17)18-7/h2,5,10,14H,1,3-4H2,(H2,17,18)(H,19,24)(H,22,23)(H,26,27)/b20-9-/t10-,14-/m1/s1

>  <INCHI_KEY>  (1) 
OKBVVJOGVLARMR-QSWIMTSFSA-N

>  <INTERNATIONAL_BRANDS>  (1) 
Cefixoral; Cefspan; Cephoral; Fixam; Fixspor; Hifen; InfectoOpticef; Kuracef; Letix; Ofex; Omnatax-O; Oracef; Oroken; Sancefix; Secef; Supran; Suprax 125; Tricef; Unixime; Uro-Cephoral

>  <JCHEM_ACCEPTOR_COUNT>  (1) 
10

>  <JCHEM_AVERAGE_POLARIZABILITY>  (1) 
41.62301400084244

>  <JCHEM_BIOAVAILABILITY>  (1) 
1

>  <JCHEM_DONOR_COUNT>  (1) 
4

>  <JCHEM_FORMAL_CHARGE>  (1) 
0

>  <JCHEM_GHOSE_FILTER>  (1) 
0

>  <JCHEM_IUPAC>  (1) 
(6R,7R)-7-[(2Z)-2-(2-amino-1,3-thiazol-4-yl)-2-[(carboxymethoxy)imino]acetamido]-3-ethenyl-8-oxo-5-thia-1-azabicyclo[4.2.0]oct-2-ene-2-carboxylic acid

>  <JCHEM_LOGP>  (1) 
-1.1755333078281587

>  <JCHEM_MDDR_LIKE_RULE>  (1) 
1

>  <JCHEM_NUMBER_OF_RINGS>  (1) 
3

>  <JCHEM_PHYSIOLOGICAL_CHARGE>  (1) 
-2

>  <JCHEM_PKA>  (1) 
3.263725461672312

>  <JCHEM_PKA_STRONGEST_ACIDIC>  (1) 
3.4486887452362733

>  <JCHEM_PKA_STRONGEST_BASIC>  (1) 
2.924703897995272

>  <JCHEM_POLAR_SURFACE_AREA>  (1) 
184.51000000000002

>  <JCHEM_REFRACTIVITY>  (1) 
104.91179999999999

>  <JCHEM_ROTATABLE_BOND_COUNT>  (1) 
8

>  <JCHEM_RULE_OF_FIVE>  (1) 
1

>  <JCHEM_TRADITIONAL_IUPAC>  (1) 
cefixime

>  <JCHEM_VEBER_RULE>  (1) 
0

>  <MOLECULAR_WEIGHT>  (1) 
453.45

>  <PRODUCTS>  (1) 
Auro-cefixime; Cefixime; Suprax; Suprax - Tab 200mg

>  <SALTS>  (1) 
Cefixime trihydrate

>  <SECONDARY_ACCESSION_NUMBERS>  (1) 
APRD00583

>  <SMILES>  (1) 
[H][C@]12SCC(C=C)=C(N1C(=O)[C@H]2NC(=O)C(=N/OCC(O)=O)\C1=CSC(N)=N1)C(O)=O

>  <SYNONYMS>  (1) 
Cefixim; Cefixima; CÃ©fixime; Cefiximum

$$$$
