786
     RDKit          2D

 52 51  0  0  1  0  0  0  0  0999 V2000
    6.6515    0.3341    0.0000 O   0  0  0  0  0  0  0  0  0  0  0  0
    4.5080   -0.9034    0.0000 O   0  0  0  0  0  0  0  0  0  0  0  0
    3.7935   -1.3159    0.0000 O   0  0  0  0  0  0  0  0  0  0  0  0
    5.2224   -1.3159    0.0000 O   0  0  0  0  0  0  0  0  0  0  0  0
    6.6515   -2.1409    0.0000 O   0  0  0  0  0  0  0  0  0  0  0  0
    3.7935    0.3341    0.0000 N   0  0  0  0  0  0  0  0  0  0  0  0
    2.3645   -1.3159    0.0000 N   0  0  0  0  0  0  0  0  0  0  0  0
    6.6515   -1.3159    0.0000 N   0  0  0  0  0  0  0  0  0  0  0  0
    2.3645    0.3341    0.0000 C   0  0  0  0  0  0  0  0  0  0  0  0
    3.0791   -0.0784    0.0000 C   0  0  0  0  0  0  0  0  0  0  0  0
    5.2224    0.3341    0.0000 C   0  0  0  0  0  0  0  0  0  0  0  0
    5.2224    1.1592    0.0000 C   0  0  0  0  0  0  0  0  0  0  0  0
    5.9370    1.5717    0.0000 C   0  0  0  0  0  0  0  0  0  0  0  0
    4.5080   -0.0784    0.0000 C   0  0  0  0  0  0  0  0  0  0  0  0
    2.7770    1.0486    0.0000 C   0  0  0  0  0  0  0  0  0  0  0  0
    1.9520   -0.3803    0.0000 C   0  0  0  0  0  0  0  0  0  0  0  0
    1.6500    0.7466    0.0000 C   0  0  0  0  0  0  0  0  0  0  0  0
    5.9370   -0.0784    0.0000 C   0  0  0  0  0  0  0  0  0  0  0  0
    3.0791   -0.9034    0.0000 C   0  0  0  0  0  0  0  0  0  0  0  0
    5.9370    2.3967    0.0000 C   0  0  0  0  0  0  0  0  0  0  0  0
    6.6515    1.1592    0.0000 C   0  0  0  0  0  0  0  0  0  0  0  0
    5.9370   -0.9034    0.0000 C   0  0  0  0  0  0  0  0  0  0  0  0
    2.3645   -2.1409    0.0000 C   0  0  0  0  0  0  0  0  0  0  0  0
    0.0000    0.0000    0.0000 H   0  0  0  0  0  0  0  0  0  0  0  0
    0.0000    0.0000    0.0000 H   0  0  0  0  0  0  0  0  0  0  0  0
    0.0000    0.0000    0.0000 H   0  0  0  0  0  0  0  0  0  0  0  0
    0.0000    0.0000    0.0000 H   0  0  0  0  0  0  0  0  0  0  0  0
    0.0000    0.0000    0.0000 H   0  0  0  0  0  0  0  0  0  0  0  0
    0.0000    0.0000    0.0000 H   0  0  0  0  0  0  0  0  0  0  0  0
    0.0000    0.0000    0.0000 H   0  0  0  0  0  0  0  0  0  0  0  0
    0.0000    0.0000    0.0000 H   0  0  0  0  0  0  0  0  0  0  0  0
    0.0000    0.0000    0.0000 H   0  0  0  0  0  0  0  0  0  0  0  0
    0.0000    0.0000    0.0000 H   0  0  0  0  0  0  0  0  0  0  0  0
    0.0000    0.0000    0.0000 H   0  0  0  0  0  0  0  0  0  0  0  0
    0.0000    0.0000    0.0000 H   0  0  0  0  0  0  0  0  0  0  0  0
    0.0000    0.0000    0.0000 H   0  0  0  0  0  0  0  0  0  0  0  0
    0.0000    0.0000    0.0000 H   0  0  0  0  0  0  0  0  0  0  0  0
    0.0000    0.0000    0.0000 H   0  0  0  0  0  0  0  0  0  0  0  0
    0.0000    0.0000    0.0000 H   0  0  0  0  0  0  0  0  0  0  0  0
    0.0000    0.0000    0.0000 H   0  0  0  0  0  0  0  0  0  0  0  0
    0.0000    0.0000    0.0000 H   0  0  0  0  0  0  0  0  0  0  0  0
    0.0000    0.0000    0.0000 H   0  0  0  0  0  0  0  0  0  0  0  0
    0.0000    0.0000    0.0000 H   0  0  0  0  0  0  0  0  0  0  0  0
    0.0000    0.0000    0.0000 H   0  0  0  0  0  0  0  0  0  0  0  0
    0.0000    0.0000    0.0000 H   0  0  0  0  0  0  0  0  0  0  0  0
    0.0000    0.0000    0.0000 H   0  0  0  0  0  0  0  0  0  0  0  0
    0.0000    0.0000    0.0000 H   0  0  0  0  0  0  0  0  0  0  0  0
    0.0000    0.0000    0.0000 H   0  0  0  0  0  0  0  0  0  0  0  0
    0.0000    0.0000    0.0000 H   0  0  0  0  0  0  0  0  0  0  0  0
    0.0000    0.0000    0.0000 H   0  0  0  0  0  0  0  0  0  0  0  0
    0.0000    0.0000    0.0000 H   0  0  0  0  0  0  0  0  0  0  0  0
    0.0000    0.0000    0.0000 H   0  0  0  0  0  0  0  0  0  0  0  0
 18  1  1  1
  2 14  2  0
  3 19  2  0
  4 22  2  0
  5  8  1  0
 10  6  1  1
  6 14  1  0
  7 19  1  0
  7 23  1  0
  8 22  1  0
  9 10  1  0
  9 15  1  0
  9 16  1  0
  9 17  1  0
 10 19  1  0
 11 12  1  6
 11 14  1  0
 11 18  1  0
 12 13  1  0
 13 20  1  0
 13 21  1  0
 18 22  1  0
  1 24  1  0
  5 25  1  0
  6 26  1  0
  7 27  1  0
  8 28  1  0
 10 29  1  0
 11 30  1  0
 12 31  1  0
 12 32  1  0
 13 33  1  0
 15 34  1  0
 15 35  1  0
 15 36  1  0
 16 37  1  0
 16 38  1  0
 16 39  1  0
 17 40  1  0
 17 41  1  0
 17 42  1  0
 18 43  1  0
 20 44  1  0
 20 45  1  0
 20 46  1  0
 21 47  1  0
 21 48  1  0
 21 49  1  0
 23 50  1  0
 23 51  1  0
 23 52  1  0
M  END
>  <ALOGPS_LOGP>  (1) 
0.41

>  <ALOGPS_LOGS>  (1) 
-1.99

>  <ALOGPS_SOLUBILITY>  (1) 
3.38e+00 g/l

>  <DATABASE_ID>  (1) 
DB00786

>  <DATABASE_NAME>  (1) 
drugbank

>  <DRUGBANK_ID>  (1) 
DB00786

>  <DRUG_GROUPS>  (1) 
approved; investigational

>  <EXACT_MASS>  (1) 
331.210721053

>  <FORMULA>  (1) 
C15H29N3O5

>  <GENERIC_NAME>  (1) 
Marimastat

>  <INCHI_IDENTIFIER>  (1) 
InChI=1S/C15H29N3O5/c1-8(2)7-9(10(19)13(21)18-23)12(20)17-11(14(22)16-6)15(3,4)5/h8-11,19,23H,7H2,1-6H3,(H,16,22)(H,17,20)(H,18,21)/t9-,10+,11-/m1/s1

>  <INCHI_KEY>  (1) 
OCSMOTCMPXTDND-OUAUKWLOSA-N

>  <JCHEM_ACCEPTOR_COUNT>  (1) 
5

>  <JCHEM_AVERAGE_POLARIZABILITY>  (1) 
34.99446263310308

>  <JCHEM_BIOAVAILABILITY>  (1) 
1

>  <JCHEM_DONOR_COUNT>  (1) 
5

>  <JCHEM_FORMAL_CHARGE>  (1) 
0

>  <JCHEM_GHOSE_FILTER>  (1) 
1

>  <JCHEM_IUPAC>  (1) 
(2S,3R)-N'-[(1S)-2,2-dimethyl-1-(methylcarbamoyl)propyl]-N,2-dihydroxy-3-(2-methylpropyl)butanediamide

>  <JCHEM_LOGP>  (1) 
-0.05891253833333343

>  <JCHEM_MDDR_LIKE_RULE>  (1) 
0

>  <JCHEM_NUMBER_OF_RINGS>  (1) 
0

>  <JCHEM_PHYSIOLOGICAL_CHARGE>  (1) 
0

>  <JCHEM_PKA>  (1) 
12.671957963697658

>  <JCHEM_PKA_STRONGEST_ACIDIC>  (1) 
8.611081960444062

>  <JCHEM_PKA_STRONGEST_BASIC>  (1) 
-1.0115699280387735

>  <JCHEM_POLAR_SURFACE_AREA>  (1) 
127.76

>  <JCHEM_REFRACTIVITY>  (1) 
84.1971

>  <JCHEM_ROTATABLE_BOND_COUNT>  (1) 
8

>  <JCHEM_RULE_OF_FIVE>  (1) 
1

>  <JCHEM_TRADITIONAL_IUPAC>  (1) 
(2S,3R)-N'-[(1S)-2,2-dimethyl-1-(methylcarbamoyl)propyl]-N,2-dihydroxy-3-(2-methylpropyl)succinamide

>  <JCHEM_VEBER_RULE>  (1) 
0

>  <MOLECULAR_WEIGHT>  (1) 
331.4079

>  <SECONDARY_ACCESSION_NUMBERS>  (1) 
APRD00559

>  <SMILES>  (1) 
CNC(=O)[C@@H](NC(=O)[C@H](CC(C)C)[C@H](O)C(=O)NO)C(C)(C)C

>  <SYNONYMS>  (1) 
Marimastat

$$$$
