
     RDKit          2D

 47 48  0  0  1  0  0  0  0  0999 V2000
    5.2224    0.5492    0.0000 N   0  0  0  0  0  0  0  0  0  0  0  0
    5.9370    0.9617    0.0000 C   0  0  0  0  0  0  0  0  0  0  0  0
    5.9370    1.7867    0.0000 C   0  0  0  0  0  0  0  0  0  0  0  0
    6.6515    2.1993    0.0000 C   0  0  0  0  0  0  0  0  0  0  0  0
    6.6515    3.0243    0.0000 C   0  0  0  0  0  0  0  0  0  0  0  0
    2.3645   -2.7509    0.0000 C   0  0  0  0  0  0  0  0  0  0  0  0
    5.2224   -0.2758    0.0000 C   0  0  0  0  0  0  0  0  0  0  0  0
    5.2224    2.1993    0.0000 C   0  0  0  0  0  0  0  0  0  0  0  0
    7.3889    1.7581    0.0000 C   0  0  0  0  0  0  0  0  0  0  0  0
    4.5080    0.9617    0.0000 C   0  0  0  0  0  0  0  0  0  0  0  0
    5.9370    3.4368    0.0000 C   0  0  0  0  0  0  0  0  0  0  0  0
    5.2224    3.0243    0.0000 C   0  0  0  0  0  0  0  0  0  0  0  0
    7.3889    3.4653    0.0000 C   0  0  0  0  0  0  0  0  0  0  0  0
    1.9520   -2.0364    0.0000 C   0  0  0  0  0  0  0  0  0  0  0  0
    2.7770   -3.4653    0.0000 C   0  0  0  0  0  0  0  0  0  0  0  0
    1.6500   -3.1634    0.0000 C   0  0  0  0  0  0  0  0  0  0  0  0
    4.5080   -0.6883    0.0000 C   0  0  0  0  0  0  0  0  0  0  0  0
    8.1365    2.1821    0.0000 C   0  0  0  0  0  0  0  0  0  0  0  0
    8.1365    3.0414    0.0000 C   0  0  0  0  0  0  0  0  0  0  0  0
    3.0791   -2.3383    0.0000 C   0  0  0  0  0  0  0  0  0  0  0  0
    4.5080   -1.5133    0.0000 C   0  0  0  0  0  0  0  0  0  0  0  0
    3.7935   -1.9258    0.0000 C   0  0  0  0  0  0  0  0  0  0  0  0
    0.0000    0.0000    0.0000 H   0  0  0  0  0  0  0  0  0  0  0  0
    0.0000    0.0000    0.0000 H   0  0  0  0  0  0  0  0  0  0  0  0
    0.0000    0.0000    0.0000 H   0  0  0  0  0  0  0  0  0  0  0  0
    0.0000    0.0000    0.0000 H   0  0  0  0  0  0  0  0  0  0  0  0
    0.0000    0.0000    0.0000 H   0  0  0  0  0  0  0  0  0  0  0  0
    0.0000    0.0000    0.0000 H   0  0  0  0  0  0  0  0  0  0  0  0
    0.0000    0.0000    0.0000 H   0  0  0  0  0  0  0  0  0  0  0  0
    0.0000    0.0000    0.0000 H   0  0  0  0  0  0  0  0  0  0  0  0
    0.0000    0.0000    0.0000 H   0  0  0  0  0  0  0  0  0  0  0  0
    0.0000    0.0000    0.0000 H   0  0  0  0  0  0  0  0  0  0  0  0
    0.0000    0.0000    0.0000 H   0  0  0  0  0  0  0  0  0  0  0  0
    0.0000    0.0000    0.0000 H   0  0  0  0  0  0  0  0  0  0  0  0
    0.0000    0.0000    0.0000 H   0  0  0  0  0  0  0  0  0  0  0  0
    0.0000    0.0000    0.0000 H   0  0  0  0  0  0  0  0  0  0  0  0
    0.0000    0.0000    0.0000 H   0  0  0  0  0  0  0  0  0  0  0  0
    0.0000    0.0000    0.0000 H   0  0  0  0  0  0  0  0  0  0  0  0
    0.0000    0.0000    0.0000 H   0  0  0  0  0  0  0  0  0  0  0  0
    0.0000    0.0000    0.0000 H   0  0  0  0  0  0  0  0  0  0  0  0
    0.0000    0.0000    0.0000 H   0  0  0  0  0  0  0  0  0  0  0  0
    0.0000    0.0000    0.0000 H   0  0  0  0  0  0  0  0  0  0  0  0
    0.0000    0.0000    0.0000 H   0  0  0  0  0  0  0  0  0  0  0  0
    0.0000    0.0000    0.0000 H   0  0  0  0  0  0  0  0  0  0  0  0
    0.0000    0.0000    0.0000 H   0  0  0  0  0  0  0  0  0  0  0  0
    0.0000    0.0000    0.0000 H   0  0  0  0  0  0  0  0  0  0  0  0
    0.0000    0.0000    0.0000 H   0  0  0  0  0  0  0  0  0  0  0  0
  1  2  1  0
  1  7  1  0
  1 10  1  0
  2  3  1  0
  3  4  2  0
  3  8  1  0
  4  5  1  0
  4  9  1  0
  5 11  2  0
  5 13  1  0
  6 14  1  0
  6 15  1  0
  6 16  1  0
  6 20  1  0
  7 17  1  0
  8 12  2  0
  9 18  2  0
 11 12  1  0
 13 19  2  0
 18 19  1  0
 20 22  3  0
 21 22  1  0
 17 21  2  0
  2 23  1  0
  2 24  1  0
  7 25  1  0
  7 26  1  0
  8 27  1  0
  9 28  1  0
 10 29  1  0
 10 30  1  0
 10 31  1  0
 11 32  1  0
 12 33  1  0
 13 34  1  0
 14 35  1  0
 14 36  1  0
 14 37  1  0
 15 38  1  0
 15 39  1  0
 15 40  1  0
 16 41  1  0
 16 42  1  0
 16 43  1  0
 17 44  1  0
 18 45  1  0
 19 46  1  0
 21 47  1  0
M  END
>  <ALOGPS_LOGP>  (1) 
5.51

>  <ALOGPS_LOGS>  (1) 
-5.60

>  <ALOGPS_SOLUBILITY>  (1) 
7.38e-04 g/l

>  <DATABASE_ID>  (1) 
DB00857

>  <DATABASE_NAME>  (1) 
drugbank

>  <DRUGBANK_ID>  (1) 
DB00857

>  <DRUG_GROUPS>  (1) 
approved; investigational; vet_approved

>  <EXACT_MASS>  (1) 
291.198699805

>  <FORMULA>  (1) 
C21H25N

>  <GENERIC_NAME>  (1) 
Terbinafine

>  <INCHI_IDENTIFIER>  (1) 
InChI=1S/C21H25N/c1-21(2,3)15-8-5-9-16-22(4)17-19-13-10-12-18-11-6-7-14-20(18)19/h5-7,9-14H,16-17H2,1-4H3/b9-5+

>  <INCHI_KEY>  (1) 
DOMXUEMWDBAQBQ-WEVVVXLNSA-N

>  <INTERNATIONAL_BRANDS>  (1) 
Terbinex

>  <JCHEM_ACCEPTOR_COUNT>  (1) 
1

>  <JCHEM_AVERAGE_POLARIZABILITY>  (1) 
35.82671244521646

>  <JCHEM_BIOAVAILABILITY>  (1) 
1

>  <JCHEM_DONOR_COUNT>  (1) 
0

>  <JCHEM_FORMAL_CHARGE>  (1) 
0

>  <JCHEM_GHOSE_FILTER>  (1) 
1

>  <JCHEM_IUPAC>  (1) 
[(2E)-6,6-dimethylhept-2-en-4-yn-1-yl](methyl)(naphthalen-1-ylmethyl)amine

>  <JCHEM_LOGP>  (1) 
5.527483033666666

>  <JCHEM_MDDR_LIKE_RULE>  (1) 
0

>  <JCHEM_NUMBER_OF_RINGS>  (1) 
2

>  <JCHEM_PHYSIOLOGICAL_CHARGE>  (1) 
1

>  <JCHEM_PKA_STRONGEST_BASIC>  (1) 
8.943206802624116

>  <JCHEM_POLAR_SURFACE_AREA>  (1) 
3.24

>  <JCHEM_REFRACTIVITY>  (1) 
98.07520000000001

>  <JCHEM_ROTATABLE_BOND_COUNT>  (1) 
6

>  <JCHEM_RULE_OF_FIVE>  (1) 
0

>  <JCHEM_TRADITIONAL_IUPAC>  (1) 
terbinafine

>  <JCHEM_VEBER_RULE>  (1) 
1

>  <MOLECULAR_WEIGHT>  (1) 
291.4299

>  <PRODUCTS>  (1) 
Act Terbinafine; Antifungal; Antifungal Foot; Apo-terbinafine; Athletes Foot; Auro-terbinafine; CVS Pharmacy Athletes Foot; Cvs; Dom-terbinafine; Equate Athletes Foot; Good Neighbor Pharmacy; GoodSense Terbinafine Hydrochloride; Jamp-terbinafine; Kaiser Permanente Terbinafine Hydrochloride; Kroger Antifungal; Lamisil; Lamisil AT; Lamisil AT Antifungal; Lamisil AT Jock Itch; Lamisil AT for Jock Itch; Lamisil At; Lamisil At Continuous Spray; Lamisil Crm 1%; Lamisil Dermgel; Lamisil Tab 250mg; Live Better Antifungal; Mylan-terbinafine; Nu-terbinafine; PHL-terbinafine; PMS-terbinafine; PMS-terbinafine Cream; PMS-terbinafine Spray; Preferred Plus; Q-terbinafine; Riva-terbinafine; Sandoz-terbinafine; ShopRite; Shopko Athletes Foot; Silka Antifungal; Terbinafine; Terbinafine Hydochloride; Terbinafine Hydrochloride; Teva-terbinafine

>  <SALTS>  (1) 
Terbinafine Hydrochloride

>  <SECONDARY_ACCESSION_NUMBERS>  (1) 
APRD00508

>  <SMILES>  (1) 
CN(C\C=C\C#CC(C)(C)C)CC1=CC=CC2=CC=CC=C12

$$$$
