581
     RDKit          2D

 45 46  0  0  1  0  0  0  0  0999 V2000
    5.6655   -0.5564    0.0000 O   0  0  0  0  0  0  0  0  0  0  0  0
    5.2530    1.5382    0.0000 O   0  0  0  0  0  0  0  0  0  0  0  0
    4.2365   -0.5564    0.0000 O   0  0  0  0  0  0  0  0  0  0  0  0
    7.1175    0.4986    0.0000 O   0  0  0  0  0  0  0  0  0  0  0  0
    6.8626    1.7931    0.0000 O   0  0  0  0  0  0  0  0  0  0  0  0
    5.6655   -2.2064    0.0000 O   0  0  0  0  0  0  0  0  0  0  0  0
    4.2365   -3.0314    0.0000 O   0  0  0  0  0  0  0  0  0  0  0  0
    2.8075   -2.2064    0.0000 O   0  0  0  0  0  0  0  0  0  0  0  0
    3.6002    1.0507    0.0000 O   0  0  0  0  0  0  0  0  0  0  0  0
    5.3634    2.7757    0.0000 O   0  0  0  0  0  0  0  0  0  0  0  0
    2.0930   -0.9689    0.0000 O   0  0  0  0  0  0  0  0  0  0  0  0
    5.6655    0.2686    0.0000 C   0  0  0  0  0  0  0  0  0  0  0  0
    6.3329    0.7536    0.0000 C   0  0  0  0  0  0  0  0  0  0  0  0
    4.9980    0.7536    0.0000 C   0  0  0  0  0  0  0  0  0  0  0  0
    6.0780    1.5382    0.0000 C   0  0  0  0  0  0  0  0  0  0  0  0
    4.9509   -0.9689    0.0000 C   0  0  0  0  0  0  0  0  0  0  0  0
    4.9509   -1.7939    0.0000 C   0  0  0  0  0  0  0  0  0  0  0  0
    4.2365   -2.2064    0.0000 C   0  0  0  0  0  0  0  0  0  0  0  0
    3.5220   -1.7939    0.0000 C   0  0  0  0  0  0  0  0  0  0  0  0
    3.5220   -0.9689    0.0000 C   0  0  0  0  0  0  0  0  0  0  0  0
    4.2134    0.4986    0.0000 C   0  0  0  0  0  0  0  0  0  0  0  0
    6.0780    2.3632    0.0000 C   0  0  0  0  0  0  0  0  0  0  0  0
    2.8075   -0.5564    0.0000 C   0  0  0  0  0  0  0  0  0  0  0  0
    0.0000    0.0000    0.0000 H   0  0  0  0  0  0  0  0  0  0  0  0
    0.0000    0.0000    0.0000 H   0  0  0  0  0  0  0  0  0  0  0  0
    0.0000    0.0000    0.0000 H   0  0  0  0  0  0  0  0  0  0  0  0
    0.0000    0.0000    0.0000 H   0  0  0  0  0  0  0  0  0  0  0  0
    0.0000    0.0000    0.0000 H   0  0  0  0  0  0  0  0  0  0  0  0
    0.0000    0.0000    0.0000 H   0  0  0  0  0  0  0  0  0  0  0  0
    0.0000    0.0000    0.0000 H   0  0  0  0  0  0  0  0  0  0  0  0
    0.0000    0.0000    0.0000 H   0  0  0  0  0  0  0  0  0  0  0  0
    0.0000    0.0000    0.0000 H   0  0  0  0  0  0  0  0  0  0  0  0
    0.0000    0.0000    0.0000 H   0  0  0  0  0  0  0  0  0  0  0  0
    0.0000    0.0000    0.0000 H   0  0  0  0  0  0  0  0  0  0  0  0
    0.0000    0.0000    0.0000 H   0  0  0  0  0  0  0  0  0  0  0  0
    0.0000    0.0000    0.0000 H   0  0  0  0  0  0  0  0  0  0  0  0
    0.0000    0.0000    0.0000 H   0  0  0  0  0  0  0  0  0  0  0  0
    0.0000    0.0000    0.0000 H   0  0  0  0  0  0  0  0  0  0  0  0
    0.0000    0.0000    0.0000 H   0  0  0  0  0  0  0  0  0  0  0  0
    0.0000    0.0000    0.0000 H   0  0  0  0  0  0  0  0  0  0  0  0
    0.0000    0.0000    0.0000 H   0  0  0  0  0  0  0  0  0  0  0  0
    0.0000    0.0000    0.0000 H   0  0  0  0  0  0  0  0  0  0  0  0
    0.0000    0.0000    0.0000 H   0  0  0  0  0  0  0  0  0  0  0  0
    0.0000    0.0000    0.0000 H   0  0  0  0  0  0  0  0  0  0  0  0
    0.0000    0.0000    0.0000 H   0  0  0  0  0  0  0  0  0  0  0  0
 12  1  1  6
 16  1  1  6
  2 14  1  0
  2 15  1  0
  3 16  1  0
  3 20  1  0
 13  4  1  6
 15  5  1  1
 17  6  1  1
 18  7  1  1
 19  8  1  1
  9 21  1  0
 10 22  1  0
 11 23  1  0
 12 13  1  0
 12 14  1  0
 13 15  1  0
 14 21  1  1
 15 22  1  0
 16 17  1  0
 17 18  1  0
 18 19  1  0
 19 20  1  0
 20 23  1  1
  4 24  1  0
  5 25  1  0
  6 26  1  0
  7 27  1  0
  8 28  1  0
  9 29  1  0
 10 30  1  0
 11 31  1  0
 12 32  1  0
 13 33  1  0
 14 34  1  0
 16 35  1  0
 17 36  1  0
 18 37  1  0
 19 38  1  0
 20 39  1  0
 21 40  1  0
 21 41  1  0
 22 42  1  0
 22 43  1  0
 23 44  1  0
 23 45  1  0
M  END
>  <ALOGPS_LOGP>  (1) 
-3.26

>  <ALOGPS_LOGS>  (1) 
0.36

>  <ALOGPS_SOLUBILITY>  (1) 
7.92e+02 g/l

>  <DATABASE_ID>  (1) 
DB00581

>  <DATABASE_NAME>  (1) 
drugbank

>  <DRUGBANK_ID>  (1) 
DB00581

>  <DRUG_GROUPS>  (1) 
approved

>  <EXACT_MASS>  (1) 
342.116211546

>  <FORMULA>  (1) 
C12H22O11

>  <GENERIC_NAME>  (1) 
Lactulose

>  <INCHI_IDENTIFIER>  (1) 
InChI=1S/C12H22O11/c13-1-4-6(16)7(17)8(18)11(21-4)22-9-5(2-14)23-12(20,3-15)10(9)19/h4-11,13-20H,1-3H2/t4-,5-,6+,7+,8-,9-,10+,11+,12-/m1/s1

>  <INCHI_KEY>  (1) 
JCQLYHFGKNRPGE-FCVZTGTOSA-N

>  <INTERNATIONAL_BRANDS>  (1) 
Bifiteral; Cephulac; Cholac; Chronulac; Constilac; Laevolac

>  <JCHEM_ACCEPTOR_COUNT>  (1) 
11

>  <JCHEM_AVERAGE_POLARIZABILITY>  (1) 
31.49348606769006

>  <JCHEM_BIOAVAILABILITY>  (1) 
0

>  <JCHEM_DONOR_COUNT>  (1) 
8

>  <JCHEM_FORMAL_CHARGE>  (1) 
0

>  <JCHEM_GHOSE_FILTER>  (1) 
0

>  <JCHEM_IUPAC>  (1) 
(2S,3R,4S,5R,6R)-2-{[(2R,3S,4S,5R)-4,5-dihydroxy-2,5-bis(hydroxymethyl)oxolan-3-yl]oxy}-6-(hydroxymethyl)oxane-3,4,5-triol

>  <JCHEM_LOGP>  (1) 
-4.528834963666666

>  <JCHEM_MDDR_LIKE_RULE>  (1) 
0

>  <JCHEM_NUMBER_OF_RINGS>  (1) 
2

>  <JCHEM_PHYSIOLOGICAL_CHARGE>  (1) 
0

>  <JCHEM_PKA>  (1) 
12.14358974589683

>  <JCHEM_PKA_STRONGEST_ACIDIC>  (1) 
10.279233031724532

>  <JCHEM_PKA_STRONGEST_BASIC>  (1) 
-2.9810835653436563

>  <JCHEM_POLAR_SURFACE_AREA>  (1) 
189.52999999999997

>  <JCHEM_REFRACTIVITY>  (1) 
68.7741

>  <JCHEM_ROTATABLE_BOND_COUNT>  (1) 
5

>  <JCHEM_RULE_OF_FIVE>  (1) 
0

>  <JCHEM_TRADITIONAL_IUPAC>  (1) 
lactulose

>  <JCHEM_VEBER_RULE>  (1) 
0

>  <MOLECULAR_WEIGHT>  (1) 
342.2965

>  <PRODUCTS>  (1) 
Apo-lactulose; Cephulac  Syr 667mg/ml; Chronulac Syr; Chronulac Syr 667mg/ml; Comalose R Sirop 10gm/15ml; Constulose; Duphalac; Duphalac Dry; Enulose; Gen-lac - Liq 667mg/ml; Generlac; Jamp-lactulose; Kristalose; Lactulax Sirop 10gm/15ml; Lactulose; Lactulose Solution USP - Liq 667mg/ml; Lactulose Solution, USP 667mg/ml; Lactulose Syrup; M-lactulose; Orb-lactulose; PHL-lactulose Soln 667mg/ml; PMS-lactulose Syr 667mg/ml; PMS-lactulose-pharma; Pharma-lactulose; Pro-lactulose - 667; Ratio-lactulose; Teva-lactulose; Woodward's Laxative Syrup

>  <SECONDARY_ACCESSION_NUMBERS>  (1) 
APRD01063

>  <SMILES>  (1) 
OC[C@H]1O[C@](O)(CO)[C@@H](O)[C@@H]1O[C@@H]1O[C@H](CO)[C@H](O)[C@H](O)[C@H]1O

>  <SYNONYMS>  (1) 
4-O-beta-D-Galactopyranosyl-D-fructofuranose; 4-O-beta-D-Galactopyranosyl-D-fructose; Lactulosa; Lactulose; Lactulosum

$$$$
