918
     RDKit          2D

 48 50  0  0  0  0  0  0  0  0999 V2000
    3.6703   -0.5207    0.0000 S   0  0  0  0  0  0  0  0  0  0  0  0
    4.0828   -1.2351    0.0000 O   0  0  0  0  0  0  0  0  0  0  0  0
    3.2577    0.1938    0.0000 O   0  0  0  0  0  0  0  0  0  0  0  0
    2.9558   -0.9332    0.0000 N   0  0  0  0  0  0  0  0  0  0  0  0
    7.3088   -1.5972    0.0000 N   0  0  0  0  0  0  0  0  0  0  0  0
    8.6288    1.4693    0.0000 N   0  0  0  0  0  0  0  0  0  0  0  0
    2.8695   -1.7537    0.0000 C   0  0  0  0  0  0  0  0  0  0  0  0
    2.2021   -0.5976    0.0000 C   0  0  0  0  0  0  0  0  0  0  0  0
    2.0625   -1.9253    0.0000 C   0  0  0  0  0  0  0  0  0  0  0  0
    1.6500   -1.2107    0.0000 C   0  0  0  0  0  0  0  0  0  0  0  0
    4.3847   -0.1082    0.0000 C   0  0  0  0  0  0  0  0  0  0  0  0
    5.0993   -0.5207    0.0000 C   0  0  0  0  0  0  0  0  0  0  0  0
    6.5282   -0.5207    0.0000 C   0  0  0  0  0  0  0  0  0  0  0  0
    5.8137   -0.1082    0.0000 C   0  0  0  0  0  0  0  0  0  0  0  0
    7.3088   -0.2693    0.0000 C   0  0  0  0  0  0  0  0  0  0  0  0
    6.5282   -1.3457    0.0000 C   0  0  0  0  0  0  0  0  0  0  0  0
    5.0993   -1.3457    0.0000 C   0  0  0  0  0  0  0  0  0  0  0  0
    7.5652    0.5149    0.0000 C   0  0  0  0  0  0  0  0  0  0  0  0
    5.8137   -1.7582    0.0000 C   0  0  0  0  0  0  0  0  0  0  0  0
    7.7903   -0.9332    0.0000 C   0  0  0  0  0  0  0  0  0  0  0  0
    8.3724    0.6851    0.0000 C   0  0  0  0  0  0  0  0  0  0  0  0
    8.0778    2.0833    0.0000 C   0  0  0  0  0  0  0  0  0  0  0  0
    9.4361    1.6394    0.0000 C   0  0  0  0  0  0  0  0  0  0  0  0
    0.0000    0.0000    0.0000 H   0  0  0  0  0  0  0  0  0  0  0  0
    0.0000    0.0000    0.0000 H   0  0  0  0  0  0  0  0  0  0  0  0
    0.0000    0.0000    0.0000 H   0  0  0  0  0  0  0  0  0  0  0  0
    0.0000    0.0000    0.0000 H   0  0  0  0  0  0  0  0  0  0  0  0
    0.0000    0.0000    0.0000 H   0  0  0  0  0  0  0  0  0  0  0  0
    0.0000    0.0000    0.0000 H   0  0  0  0  0  0  0  0  0  0  0  0
    0.0000    0.0000    0.0000 H   0  0  0  0  0  0  0  0  0  0  0  0
    0.0000    0.0000    0.0000 H   0  0  0  0  0  0  0  0  0  0  0  0
    0.0000    0.0000    0.0000 H   0  0  0  0  0  0  0  0  0  0  0  0
    0.0000    0.0000    0.0000 H   0  0  0  0  0  0  0  0  0  0  0  0
    0.0000    0.0000    0.0000 H   0  0  0  0  0  0  0  0  0  0  0  0
    0.0000    0.0000    0.0000 H   0  0  0  0  0  0  0  0  0  0  0  0
    0.0000    0.0000    0.0000 H   0  0  0  0  0  0  0  0  0  0  0  0
    0.0000    0.0000    0.0000 H   0  0  0  0  0  0  0  0  0  0  0  0
    0.0000    0.0000    0.0000 H   0  0  0  0  0  0  0  0  0  0  0  0
    0.0000    0.0000    0.0000 H   0  0  0  0  0  0  0  0  0  0  0  0
    0.0000    0.0000    0.0000 H   0  0  0  0  0  0  0  0  0  0  0  0
    0.0000    0.0000    0.0000 H   0  0  0  0  0  0  0  0  0  0  0  0
    0.0000    0.0000    0.0000 H   0  0  0  0  0  0  0  0  0  0  0  0
    0.0000    0.0000    0.0000 H   0  0  0  0  0  0  0  0  0  0  0  0
    0.0000    0.0000    0.0000 H   0  0  0  0  0  0  0  0  0  0  0  0
    0.0000    0.0000    0.0000 H   0  0  0  0  0  0  0  0  0  0  0  0
    0.0000    0.0000    0.0000 H   0  0  0  0  0  0  0  0  0  0  0  0
    0.0000    0.0000    0.0000 H   0  0  0  0  0  0  0  0  0  0  0  0
    0.0000    0.0000    0.0000 H   0  0  0  0  0  0  0  0  0  0  0  0
  1  2  2  0
  1  3  2  0
  1  4  1  0
  1 11  1  0
  4  7  1  0
  4  8  1  0
  5 16  1  0
  5 20  1  0
  6 21  1  0
  6 22  1  0
  6 23  1  0
  7  9  1  0
  8 10  1  0
  9 10  1  0
 11 12  1  0
 12 14  2  0
 12 17  1  0
 13 14  1  0
 13 15  1  0
 13 16  2  0
 15 18  1  0
 15 20  2  0
 16 19  1  0
 17 19  2  0
 18 21  1  0
  5 24  1  0
  7 25  1  0
  7 26  1  0
  8 27  1  0
  8 28  1  0
  9 29  1  0
  9 30  1  0
 10 31  1  0
 10 32  1  0
 11 33  1  0
 11 34  1  0
 14 35  1  0
 17 36  1  0
 18 37  1  0
 18 38  1  0
 19 39  1  0
 20 40  1  0
 21 41  1  0
 21 42  1  0
 22 43  1  0
 22 44  1  0
 22 45  1  0
 23 46  1  0
 23 47  1  0
 23 48  1  0
M  END
>  <ALOGPS_LOGP>  (1) 
2.04

>  <ALOGPS_LOGS>  (1) 
-3.44

>  <ALOGPS_SOLUBILITY>  (1) 
1.21e-01 g/l

>  <DATABASE_ID>  (1) 
DB00918

>  <DATABASE_NAME>  (1) 
drugbank

>  <DRUGBANK_ID>  (1) 
DB00918

>  <DRUG_GROUPS>  (1) 
approved; investigational

>  <EXACT_MASS>  (1) 
335.166747749

>  <FORMULA>  (1) 
C17H25N3O2S

>  <GENERIC_NAME>  (1) 
Almotriptan

>  <INCHI_IDENTIFIER>  (1) 
InChI=1S/C17H25N3O2S/c1-19(2)10-7-15-12-18-17-6-5-14(11-16(15)17)13-23(21,22)20-8-3-4-9-20/h5-6,11-12,18H,3-4,7-10,13H2,1-2H3

>  <INCHI_KEY>  (1) 
WKEMJKQOLOHJLZ-UHFFFAOYSA-N

>  <JCHEM_ACCEPTOR_COUNT>  (1) 
3

>  <JCHEM_AVERAGE_POLARIZABILITY>  (1) 
37.00585179084725

>  <JCHEM_BIOAVAILABILITY>  (1) 
1

>  <JCHEM_DONOR_COUNT>  (1) 
1

>  <JCHEM_FORMAL_CHARGE>  (1) 
0

>  <JCHEM_GHOSE_FILTER>  (1) 
1

>  <JCHEM_IUPAC>  (1) 
dimethyl(2-{5-[(pyrrolidine-1-sulfonyl)methyl]-1H-indol-3-yl}ethyl)amine

>  <JCHEM_LOGP>  (1) 
1.5233823820000005

>  <JCHEM_MDDR_LIKE_RULE>  (1) 
0

>  <JCHEM_NUMBER_OF_RINGS>  (1) 
3

>  <JCHEM_PHYSIOLOGICAL_CHARGE>  (1) 
1

>  <JCHEM_PKA_STRONGEST_ACIDIC>  (1) 
17.136012780155003

>  <JCHEM_PKA_STRONGEST_BASIC>  (1) 
9.545771606171147

>  <JCHEM_POLAR_SURFACE_AREA>  (1) 
56.410000000000004

>  <JCHEM_REFRACTIVITY>  (1) 
94.52189999999999

>  <JCHEM_ROTATABLE_BOND_COUNT>  (1) 
5

>  <JCHEM_RULE_OF_FIVE>  (1) 
1

>  <JCHEM_TRADITIONAL_IUPAC>  (1) 
almotriptan

>  <JCHEM_VEBER_RULE>  (1) 
0

>  <MOLECULAR_WEIGHT>  (1) 
335.464

>  <PRODUCTS>  (1) 
Almotriptan; Almotriptan Malate; Apo-almotriptan; Axert; Axert 12.5mg; Axert 6.25mg; Mylan-almotriptan; PMS-almotriptan; Sandoz Almotriptan; Teva-almotriptan

>  <SALTS>  (1) 
Almotriptan malate

>  <SECONDARY_ACCESSION_NUMBERS>  (1) 
APRD00169

>  <SMILES>  (1) 
CN(C)CCC1=CNC2=C1C=C(CS(=O)(=O)N1CCCC1)C=C2

>  <SYNONYMS>  (1) 
1-(((3-(2-(Dimethylamino)ethyl)indol-5-yl)methyl)sulfonyl)pyrrolidine

$$$$
