711
     RDKit          2D

 35 35  0  0  0  0  0  0  0  0999 V2000
    4.5080   -1.2375    0.0000 O   0  0  0  0  0  0  0  0  0  0  0  0
    3.7935    0.0000    0.0000 N   0  0  0  0  0  0  0  0  0  0  0  0
    3.7935    1.6500    0.0000 N   0  0  0  0  0  0  0  0  0  0  0  0
    3.0791   -1.2375    0.0000 N   0  0  0  0  0  0  0  0  0  0  0  0
    4.5080    0.4125    0.0000 C   0  0  0  0  0  0  0  0  0  0  0  0
    3.0791    0.4125    0.0000 C   0  0  0  0  0  0  0  0  0  0  0  0
    4.5080    1.2375    0.0000 C   0  0  0  0  0  0  0  0  0  0  0  0
    3.0791    1.2375    0.0000 C   0  0  0  0  0  0  0  0  0  0  0  0
    3.7935   -0.8250    0.0000 C   0  0  0  0  0  0  0  0  0  0  0  0
    3.7935    2.4751    0.0000 C   0  0  0  0  0  0  0  0  0  0  0  0
    3.0791   -2.0625    0.0000 C   0  0  0  0  0  0  0  0  0  0  0  0
    2.3645   -0.8250    0.0000 C   0  0  0  0  0  0  0  0  0  0  0  0
    2.3645   -2.4751    0.0000 C   0  0  0  0  0  0  0  0  0  0  0  0
    1.6500   -1.2375    0.0000 C   0  0  0  0  0  0  0  0  0  0  0  0
    0.0000    0.0000    0.0000 H   0  0  0  0  0  0  0  0  0  0  0  0
    0.0000    0.0000    0.0000 H   0  0  0  0  0  0  0  0  0  0  0  0
    0.0000    0.0000    0.0000 H   0  0  0  0  0  0  0  0  0  0  0  0
    0.0000    0.0000    0.0000 H   0  0  0  0  0  0  0  0  0  0  0  0
    0.0000    0.0000    0.0000 H   0  0  0  0  0  0  0  0  0  0  0  0
    0.0000    0.0000    0.0000 H   0  0  0  0  0  0  0  0  0  0  0  0
    0.0000    0.0000    0.0000 H   0  0  0  0  0  0  0  0  0  0  0  0
    0.0000    0.0000    0.0000 H   0  0  0  0  0  0  0  0  0  0  0  0
    0.0000    0.0000    0.0000 H   0  0  0  0  0  0  0  0  0  0  0  0
    0.0000    0.0000    0.0000 H   0  0  0  0  0  0  0  0  0  0  0  0
    0.0000    0.0000    0.0000 H   0  0  0  0  0  0  0  0  0  0  0  0
    0.0000    0.0000    0.0000 H   0  0  0  0  0  0  0  0  0  0  0  0
    0.0000    0.0000    0.0000 H   0  0  0  0  0  0  0  0  0  0  0  0
    0.0000    0.0000    0.0000 H   0  0  0  0  0  0  0  0  0  0  0  0
    0.0000    0.0000    0.0000 H   0  0  0  0  0  0  0  0  0  0  0  0
    0.0000    0.0000    0.0000 H   0  0  0  0  0  0  0  0  0  0  0  0
    0.0000    0.0000    0.0000 H   0  0  0  0  0  0  0  0  0  0  0  0
    0.0000    0.0000    0.0000 H   0  0  0  0  0  0  0  0  0  0  0  0
    0.0000    0.0000    0.0000 H   0  0  0  0  0  0  0  0  0  0  0  0
    0.0000    0.0000    0.0000 H   0  0  0  0  0  0  0  0  0  0  0  0
    0.0000    0.0000    0.0000 H   0  0  0  0  0  0  0  0  0  0  0  0
  1  9  2  0
  2  5  1  0
  2  6  1  0
  2  9  1  0
  3  7  1  0
  3  8  1  0
  3 10  1  0
  4  9  1  0
  4 11  1  0
  4 12  1  0
  5  7  1  0
  6  8  1  0
 11 13  1  0
 12 14  1  0
  5 15  1  0
  5 16  1  0
  6 17  1  0
  6 18  1  0
  7 19  1  0
  7 20  1  0
  8 21  1  0
  8 22  1  0
 10 23  1  0
 10 24  1  0
 10 25  1  0
 11 26  1  0
 11 27  1  0
 12 28  1  0
 12 29  1  0
 13 30  1  0
 13 31  1  0
 13 32  1  0
 14 33  1  0
 14 34  1  0
 14 35  1  0
M  END
>  <ALOGPS_LOGP>  (1) 
0.90

>  <ALOGPS_LOGS>  (1) 
0.07

>  <ALOGPS_SOLUBILITY>  (1) 
2.36e+02 g/l

>  <DATABASE_ID>  (1) 
DB00711

>  <DATABASE_NAME>  (1) 
drugbank

>  <DRUGBANK_ID>  (1) 
DB00711

>  <DRUG_GROUPS>  (1) 
approved; investigational; vet_approved

>  <EXACT_MASS>  (1) 
199.168462309

>  <FORMULA>  (1) 
C10H21N3O

>  <GENERIC_NAME>  (1) 
Diethylcarbamazine

>  <INCHI_IDENTIFIER>  (1) 
InChI=1S/C10H21N3O/c1-4-12(5-2)10(14)13-8-6-11(3)7-9-13/h4-9H2,1-3H3

>  <INCHI_KEY>  (1) 
RCKMWOKWVGPNJF-UHFFFAOYSA-N

>  <INTERNATIONAL_BRANDS>  (1) 
Banocide; Banocide Forte; Carbilazine; Caricide; Cypip; Decet; Dicarb; Diethizine; Eofil; Ethodryl; Hetrazan; Notezine; Spatonin; Supatonin

>  <JCHEM_ACCEPTOR_COUNT>  (1) 
2

>  <JCHEM_AVERAGE_POLARIZABILITY>  (1) 
22.886127253265887

>  <JCHEM_BIOAVAILABILITY>  (1) 
1

>  <JCHEM_DONOR_COUNT>  (1) 
0

>  <JCHEM_FORMAL_CHARGE>  (1) 
0

>  <JCHEM_GHOSE_FILTER>  (1) 
1

>  <JCHEM_IUPAC>  (1) 
N,N-diethyl-4-methylpiperazine-1-carboxamide

>  <JCHEM_LOGP>  (1) 
0.0916058893333325

>  <JCHEM_MDDR_LIKE_RULE>  (1) 
0

>  <JCHEM_NUMBER_OF_RINGS>  (1) 
1

>  <JCHEM_PHYSIOLOGICAL_CHARGE>  (1) 
0

>  <JCHEM_PKA_STRONGEST_BASIC>  (1) 
6.897879235789702

>  <JCHEM_POLAR_SURFACE_AREA>  (1) 
26.790000000000006

>  <JCHEM_REFRACTIVITY>  (1) 
58.276700000000005

>  <JCHEM_ROTATABLE_BOND_COUNT>  (1) 
2

>  <JCHEM_RULE_OF_FIVE>  (1) 
1

>  <JCHEM_TRADITIONAL_IUPAC>  (1) 
diethylcarbamazine

>  <JCHEM_VEBER_RULE>  (1) 
1

>  <MOLECULAR_WEIGHT>  (1) 
199.2932

>  <PRODUCTS>  (1) 
Hetrazan Tab 50mg

>  <SALTS>  (1) 
Diethylcarbamazine Citrate

>  <SECONDARY_ACCESSION_NUMBERS>  (1) 
APRD00918

>  <SMILES>  (1) 
CCN(CC)C(=O)N1CCN(C)CC1

>  <SYNONYMS>  (1) 
Carbamazine; Diethylcarbamazin; Di√©thylcarbamazine; Diethylcarbamazinum; Dietilcarbamazina

$$$$
