527
     RDKit          2D

 54 55  0  0  0  0  0  0  0  0999 V2000
    3.0790    1.8563    0.0000 O   0  0  0  0  0  0  0  0  0  0  0  0
    5.2223   -1.0313    0.0000 O   0  0  0  0  0  0  0  0  0  0  0  0
    3.0790   -3.0938    0.0000 N   0  0  0  0  0  0  0  0  0  0  0  0
    3.7934   -1.0313    0.0000 N   0  0  0  0  0  0  0  0  0  0  0  0
    4.5079    1.8563    0.0000 N   0  0  0  0  0  0  0  0  0  0  0  0
    3.0790   -2.2688    0.0000 C   0  0  0  0  0  0  0  0  0  0  0  0
    3.7934   -1.8563    0.0000 C   0  0  0  0  0  0  0  0  0  0  0  0
    2.3644   -3.5062    0.0000 C   0  0  0  0  0  0  0  0  0  0  0  0
    3.7934   -3.5062    0.0000 C   0  0  0  0  0  0  0  0  0  0  0  0
    4.5079    0.2063    0.0000 C   0  0  0  0  0  0  0  0  0  0  0  0
    2.3644   -4.3313    0.0000 C   0  0  0  0  0  0  0  0  0  0  0  0
    3.7934   -4.3313    0.0000 C   0  0  0  0  0  0  0  0  0  0  0  0
    5.2223    0.6188    0.0000 C   0  0  0  0  0  0  0  0  0  0  0  0
    4.5079   -0.6188    0.0000 C   0  0  0  0  0  0  0  0  0  0  0  0
    5.2223    1.4438    0.0000 C   0  0  0  0  0  0  0  0  0  0  0  0
    3.7934    0.6188    0.0000 C   0  0  0  0  0  0  0  0  0  0  0  0
    2.3644    3.0938    0.0000 C   0  0  0  0  0  0  0  0  0  0  0  0
    3.7934    1.4438    0.0000 C   0  0  0  0  0  0  0  0  0  0  0  0
    3.0790    2.6812    0.0000 C   0  0  0  0  0  0  0  0  0  0  0  0
    2.3644    3.9188    0.0000 C   0  0  0  0  0  0  0  0  0  0  0  0
    5.9599    0.1776    0.0000 C   0  0  0  0  0  0  0  0  0  0  0  0
    5.9599    1.8849    0.0000 C   0  0  0  0  0  0  0  0  0  0  0  0
    6.7073    0.6016    0.0000 C   0  0  0  0  0  0  0  0  0  0  0  0
    6.7073    1.4609    0.0000 C   0  0  0  0  0  0  0  0  0  0  0  0
    1.6500    4.3313    0.0000 C   0  0  0  0  0  0  0  0  0  0  0  0
    0.0000    0.0000    0.0000 H   0  0  0  0  0  0  0  0  0  0  0  0
    0.0000    0.0000    0.0000 H   0  0  0  0  0  0  0  0  0  0  0  0
    0.0000    0.0000    0.0000 H   0  0  0  0  0  0  0  0  0  0  0  0
    0.0000    0.0000    0.0000 H   0  0  0  0  0  0  0  0  0  0  0  0
    0.0000    0.0000    0.0000 H   0  0  0  0  0  0  0  0  0  0  0  0
    0.0000    0.0000    0.0000 H   0  0  0  0  0  0  0  0  0  0  0  0
    0.0000    0.0000    0.0000 H   0  0  0  0  0  0  0  0  0  0  0  0
    0.0000    0.0000    0.0000 H   0  0  0  0  0  0  0  0  0  0  0  0
    0.0000    0.0000    0.0000 H   0  0  0  0  0  0  0  0  0  0  0  0
    0.0000    0.0000    0.0000 H   0  0  0  0  0  0  0  0  0  0  0  0
    0.0000    0.0000    0.0000 H   0  0  0  0  0  0  0  0  0  0  0  0
    0.0000    0.0000    0.0000 H   0  0  0  0  0  0  0  0  0  0  0  0
    0.0000    0.0000    0.0000 H   0  0  0  0  0  0  0  0  0  0  0  0
    0.0000    0.0000    0.0000 H   0  0  0  0  0  0  0  0  0  0  0  0
    0.0000    0.0000    0.0000 H   0  0  0  0  0  0  0  0  0  0  0  0
    0.0000    0.0000    0.0000 H   0  0  0  0  0  0  0  0  0  0  0  0
    0.0000    0.0000    0.0000 H   0  0  0  0  0  0  0  0  0  0  0  0
    0.0000    0.0000    0.0000 H   0  0  0  0  0  0  0  0  0  0  0  0
    0.0000    0.0000    0.0000 H   0  0  0  0  0  0  0  0  0  0  0  0
    0.0000    0.0000    0.0000 H   0  0  0  0  0  0  0  0  0  0  0  0
    0.0000    0.0000    0.0000 H   0  0  0  0  0  0  0  0  0  0  0  0
    0.0000    0.0000    0.0000 H   0  0  0  0  0  0  0  0  0  0  0  0
    0.0000    0.0000    0.0000 H   0  0  0  0  0  0  0  0  0  0  0  0
    0.0000    0.0000    0.0000 H   0  0  0  0  0  0  0  0  0  0  0  0
    0.0000    0.0000    0.0000 H   0  0  0  0  0  0  0  0  0  0  0  0
    0.0000    0.0000    0.0000 H   0  0  0  0  0  0  0  0  0  0  0  0
    0.0000    0.0000    0.0000 H   0  0  0  0  0  0  0  0  0  0  0  0
    0.0000    0.0000    0.0000 H   0  0  0  0  0  0  0  0  0  0  0  0
    0.0000    0.0000    0.0000 H   0  0  0  0  0  0  0  0  0  0  0  0
  1 18  1  0
  1 19  1  0
  2 14  2  0
  3  6  1  0
  3  8  1  0
  3  9  1  0
  4  7  1  0
  4 14  1  0
  5 15  2  0
  5 18  1  0
  6  7  1  0
  8 11  1  0
  9 12  1  0
 10 13  2  0
 10 14  1  0
 10 16  1  0
 13 15  1  0
 13 21  1  0
 15 22  1  0
 16 18  2  0
 17 19  1  0
 17 20  1  0
 20 25  1  0
 21 23  2  0
 22 24  2  0
 23 24  1  0
  4 26  1  0
  6 27  1  0
  6 28  1  0
  7 29  1  0
  7 30  1  0
  8 31  1  0
  8 32  1  0
  9 33  1  0
  9 34  1  0
 11 35  1  0
 11 36  1  0
 11 37  1  0
 12 38  1  0
 12 39  1  0
 12 40  1  0
 16 41  1  0
 17 42  1  0
 17 43  1  0
 19 44  1  0
 19 45  1  0
 20 46  1  0
 20 47  1  0
 21 48  1  0
 22 49  1  0
 23 50  1  0
 24 51  1  0
 25 52  1  0
 25 53  1  0
 25 54  1  0
M  END
>  <ALOGPS_LOGP>  (1) 
3.79

>  <ALOGPS_LOGS>  (1) 
-3.95

>  <ALOGPS_SOLUBILITY>  (1) 
3.89e-02 g/l

>  <DATABASE_ID>  (1) 
DB00527

>  <DATABASE_NAME>  (1) 
drugbank

>  <DRUGBANK_ID>  (1) 
DB00527

>  <DRUG_GROUPS>  (1) 
approved; vet_approved

>  <EXACT_MASS>  (1) 
343.225977187

>  <FORMULA>  (1) 
C20H29N3O2

>  <GENERIC_NAME>  (1) 
Cinchocaine

>  <INCHI_IDENTIFIER>  (1) 
InChI=1S/C20H29N3O2/c1-4-7-14-25-19-15-17(16-10-8-9-11-18(16)22-19)20(24)21-12-13-23(5-2)6-3/h8-11,15H,4-7,12-14H2,1-3H3,(H,21,24)

>  <INCHI_KEY>  (1) 
PUFQVTATUTYEAL-UHFFFAOYSA-N

>  <INTERNATIONAL_BRANDS>  (1) 
Cincain; Nupercaine

>  <JCHEM_ACCEPTOR_COUNT>  (1) 
4

>  <JCHEM_AVERAGE_POLARIZABILITY>  (1) 
40.77996698487488

>  <JCHEM_BIOAVAILABILITY>  (1) 
1

>  <JCHEM_DONOR_COUNT>  (1) 
1

>  <JCHEM_FORMAL_CHARGE>  (1) 
0

>  <JCHEM_GHOSE_FILTER>  (1) 
1

>  <JCHEM_IUPAC>  (1) 
2-butoxy-N-[2-(diethylamino)ethyl]quinoline-4-carboxamide

>  <JCHEM_LOGP>  (1) 
3.698162542000002

>  <JCHEM_MDDR_LIKE_RULE>  (1) 
0

>  <JCHEM_NUMBER_OF_RINGS>  (1) 
2

>  <JCHEM_PHYSIOLOGICAL_CHARGE>  (1) 
1

>  <JCHEM_PKA_STRONGEST_ACIDIC>  (1) 
14.574410406507933

>  <JCHEM_PKA_STRONGEST_BASIC>  (1) 
9.044345732080648

>  <JCHEM_POLAR_SURFACE_AREA>  (1) 
54.46

>  <JCHEM_REFRACTIVITY>  (1) 
102.12100000000001

>  <JCHEM_ROTATABLE_BOND_COUNT>  (1) 
10

>  <JCHEM_RULE_OF_FIVE>  (1) 
1

>  <JCHEM_TRADITIONAL_IUPAC>  (1) 
dibucaine

>  <JCHEM_VEBER_RULE>  (1) 
0

>  <MOLECULAR_WEIGHT>  (1) 
343.4632

>  <PRODUCTS>  (1) 
CVS Hemorrhoidal Topical Analgesic; Dibucaine; Nupercainal; Nupercainal Anesthetic Ointment 1%; Nupercainal Antiseptic Cream; Proctol Ointment; Proctol Suppositories; Proctosedyl Ointment; Proctosedyl Sup; Proctosedyl Suppositories; Proctosone Ont; Proctosone Sup; Ratio-proctosone; Sandoz Proctomyxin HC; Sandoz Proctomyxin HC Suppositories

>  <SALTS>  (1) 
Cinchocaine hydrochloride; Dibucaine hydrochloride

>  <SECONDARY_ACCESSION_NUMBERS>  (1) 
APRD00915

>  <SMILES>  (1) 
CCCCOC1=NC2=CC=CC=C2C(=C1)C(=O)NCCN(CC)CC

>  <SYNONYMS>  (1) 
Dibucaine

$$$$
