783
     RDKit          2D

 44 47  0  0  1  0  0  0  0  0999 V2000
    7.5775    1.7429    0.0000 O   0  0  0  0  0  0  0  0  0  0  0  0
    2.0917   -1.8105    0.0000 O   0  0  0  0  0  0  0  0  0  0  0  0
    6.5406    0.7074    0.0000 C   0  0  0  0  0  0  0  0  0  0  0  0
    6.5406   -0.1176    0.0000 C   0  0  0  0  0  0  0  0  0  0  0  0
    5.8262   -0.5300    0.0000 C   0  0  0  0  0  0  0  0  0  0  0  0
    5.1119   -0.1176    0.0000 C   0  0  0  0  0  0  0  0  0  0  0  0
    7.3211    0.9588    0.0000 C   0  0  0  0  0  0  0  0  0  0  0  0
    5.8262    1.1199    0.0000 C   0  0  0  0  0  0  0  0  0  0  0  0
    7.3211   -0.3689    0.0000 C   0  0  0  0  0  0  0  0  0  0  0  0
    5.1119    0.7074    0.0000 C   0  0  0  0  0  0  0  0  0  0  0  0
    7.8026    0.2949    0.0000 C   0  0  0  0  0  0  0  0  0  0  0  0
    5.8395   -1.3891    0.0000 C   0  0  0  0  0  0  0  0  0  0  0  0
    6.5406    1.5323    0.0000 C   0  0  0  0  0  0  0  0  0  0  0  0
    4.3612   -0.5356    0.0000 C   0  0  0  0  0  0  0  0  0  0  0  0
    5.0987   -1.8245    0.0000 C   0  0  0  0  0  0  0  0  0  0  0  0
    4.3545   -1.3948    0.0000 C   0  0  0  0  0  0  0  0  0  0  0  0
    3.5966   -0.0703    0.0000 C   0  0  0  0  0  0  0  0  0  0  0  0
    3.5829   -1.8483    0.0000 C   0  0  0  0  0  0  0  0  0  0  0  0
    2.8147   -0.5058    0.0000 C   0  0  0  0  0  0  0  0  0  0  0  0
    2.8078   -1.4008    0.0000 C   0  0  0  0  0  0  0  0  0  0  0  0
    0.0000    0.0000    0.0000 H   0  0  0  0  0  0  0  0  0  0  0  0
    0.0000    0.0000    0.0000 H   0  0  0  0  0  0  0  0  0  0  0  0
    0.0000    0.0000    0.0000 H   0  0  0  0  0  0  0  0  0  0  0  0
    0.0000    0.0000    0.0000 H   0  0  0  0  0  0  0  0  0  0  0  0
    0.0000    0.0000    0.0000 H   0  0  0  0  0  0  0  0  0  0  0  0
    0.0000    0.0000    0.0000 H   0  0  0  0  0  0  0  0  0  0  0  0
    0.0000    0.0000    0.0000 H   0  0  0  0  0  0  0  0  0  0  0  0
    0.0000    0.0000    0.0000 H   0  0  0  0  0  0  0  0  0  0  0  0
    0.0000    0.0000    0.0000 H   0  0  0  0  0  0  0  0  0  0  0  0
    0.0000    0.0000    0.0000 H   0  0  0  0  0  0  0  0  0  0  0  0
    0.0000    0.0000    0.0000 H   0  0  0  0  0  0  0  0  0  0  0  0
    0.0000    0.0000    0.0000 H   0  0  0  0  0  0  0  0  0  0  0  0
    0.0000    0.0000    0.0000 H   0  0  0  0  0  0  0  0  0  0  0  0
    0.0000    0.0000    0.0000 H   0  0  0  0  0  0  0  0  0  0  0  0
    0.0000    0.0000    0.0000 H   0  0  0  0  0  0  0  0  0  0  0  0
    0.0000    0.0000    0.0000 H   0  0  0  0  0  0  0  0  0  0  0  0
    0.0000    0.0000    0.0000 H   0  0  0  0  0  0  0  0  0  0  0  0
    0.0000    0.0000    0.0000 H   0  0  0  0  0  0  0  0  0  0  0  0
    0.0000    0.0000    0.0000 H   0  0  0  0  0  0  0  0  0  0  0  0
    0.0000    0.0000    0.0000 H   0  0  0  0  0  0  0  0  0  0  0  0
    0.0000    0.0000    0.0000 H   0  0  0  0  0  0  0  0  0  0  0  0
    0.0000    0.0000    0.0000 H   0  0  0  0  0  0  0  0  0  0  0  0
    0.0000    0.0000    0.0000 H   0  0  0  0  0  0  0  0  0  0  0  0
    0.0000    0.0000    0.0000 H   0  0  0  0  0  0  0  0  0  0  0  0
  7  1  1  1
  2 20  1  0
  3  4  1  0
  3  7  1  0
  3  8  1  0
  3 13  1  1
  4  5  1  0
  4  9  1  0
  5  6  1  0
  5 12  1  0
  6 10  1  0
  6 14  1  0
  7 11  1  0
  8 10  1  0
  9 11  1  0
 12 15  1  0
 14 16  2  0
 14 17  1  0
 15 16  1  0
 16 18  1  0
 17 19  2  0
 18 20  2  0
 19 20  1  0
  1 21  1  0
  2 22  1  0
  4 23  1  6
  5 24  1  1
  6 25  1  6
  7 26  1  0
  8 27  1  0
  8 28  1  0
  9 29  1  0
  9 30  1  0
 10 31  1  0
 10 32  1  0
 11 33  1  0
 11 34  1  0
 12 35  1  0
 12 36  1  0
 13 37  1  0
 13 38  1  0
 13 39  1  0
 15 40  1  0
 15 41  1  0
 17 42  1  0
 18 43  1  0
 19 44  1  0
M  END
>  <ALOGPS_LOGP>  (1) 
3.57

>  <ALOGPS_LOGS>  (1) 
-4.11

>  <ALOGPS_SOLUBILITY>  (1) 
2.13e-02 g/l

>  <DATABASE_ID>  (1) 
DB00783

>  <DATABASE_NAME>  (1) 
drugbank

>  <DRUGBANK_ID>  (1) 
DB00783

>  <DRUG_GROUPS>  (1) 
approved; investigational; vet_approved

>  <EXACT_MASS>  (1) 
272.177630012

>  <FORMULA>  (1) 
C18H24O2

>  <GENERIC_NAME>  (1) 
Estradiol

>  <INCHI_IDENTIFIER>  (1) 
InChI=1S/C18H24O2/c1-18-9-8-14-13-5-3-12(19)10-11(13)2-4-15(14)16(18)6-7-17(18)20/h3,5,10,14-17,19-20H,2,4,6-9H2,1H3/t14-,15-,16+,17+,18+/m1/s1

>  <INCHI_KEY>  (1) 
VOXZDWNPVJITMN-ZBRFXRBCSA-N

>  <INTERNATIONAL_BRANDS>  (1) 
Estraderm MX; Estraderm TTS; Estrasorb; Estrofem; Femtrace; Innofem; Vivelle

>  <JCHEM_ACCEPTOR_COUNT>  (1) 
2

>  <JCHEM_AVERAGE_POLARIZABILITY>  (1) 
32.13020970384841

>  <JCHEM_BIOAVAILABILITY>  (1) 
1

>  <JCHEM_DONOR_COUNT>  (1) 
2

>  <JCHEM_FORMAL_CHARGE>  (1) 
0

>  <JCHEM_GHOSE_FILTER>  (1) 
1

>  <JCHEM_IUPAC>  (1) 
(1S,10R,11S,14S,15S)-15-methyltetracyclo[8.7.0.0²,⁷.0¹¹,¹⁵]heptadeca-2(7),3,5-triene-5,14-diol

>  <JCHEM_LOGP>  (1) 
3.745501328333334

>  <JCHEM_MDDR_LIKE_RULE>  (1) 
0

>  <JCHEM_NUMBER_OF_RINGS>  (1) 
4

>  <JCHEM_PHYSIOLOGICAL_CHARGE>  (1) 
0

>  <JCHEM_PKA>  (1) 
19.37769223665565

>  <JCHEM_PKA_STRONGEST_ACIDIC>  (1) 
10.327060716263132

>  <JCHEM_PKA_STRONGEST_BASIC>  (1) 
-0.8839974156894889

>  <JCHEM_POLAR_SURFACE_AREA>  (1) 
40.46

>  <JCHEM_REFRACTIVITY>  (1) 
79.9047

>  <JCHEM_ROTATABLE_BOND_COUNT>  (1) 
0

>  <JCHEM_RULE_OF_FIVE>  (1) 
1

>  <JCHEM_TRADITIONAL_IUPAC>  (1) 
(-)-estradiol

>  <JCHEM_VEBER_RULE>  (1) 
0

>  <MOLECULAR_WEIGHT>  (1) 
272.382

>  <PRODUCTS>  (1) 
Activella; Activelle; Activelle Ld; Alora; Amabelz; Angeliq; Climacteron Injection; Climara; Climara 100; Climara 25; Climara 50; Climara 75; Climara Pro; CombiPatch; CombiPatch (estradiol/norethindrone acetate transdermal system); Delestrogen; Delestrogen Inj 10mg/ml; Depo-Estradiol; DiviGel; Divigel; Elestrin; Estalis 140/50 Mcg; Estalis 250/50 Mcg; Estalis Sequi; Estrace; Estrace Tab 1mg; Estrace Tab 2mg; Estracomb; Estraderm-100; Estraderm-25; Estraderm-50; Estradiol; Estradiol / Norethindrone Acetate; Estradiol Transdermal System; Estradiol Valerate; Estradot 100; Estradot 25; Estradot 37.5; Estradot 50; Estradot 75; Estring; EstroGel; Estrogel Propak; Evamist; Femring; Lopreeza; Lupin-estradiol; Menostar; Mimvey; Mimvey Lo; Minivelle; Natazia; Neo Pause Injection; Neo-diol Inj 20mg/ml; Oesclim; PMS-estradiol Valerate Inj 10mg/ml; Prefesta; Sandoz Estradiol Derm 100; Sandoz Estradiol Derm 50; Sandoz Estradiol Derm 75; Vagifem; Vagifem 10; Vivelle 100mcg; Vivelle 37.5mcg; Vivelle 50mcg; Vivelle 75mcg; Vivelle Dot; Vivelle-Dot; Yuvafem

>  <SALTS>  (1) 
Estradiol acetate; Estradiol benzoate; Estradiol cypionate; Estradiol dienanthate; Estradiol hemihydrate; Estradiol valerate

>  <SECONDARY_ACCESSION_NUMBERS>  (1) 
APRD00311

>  <SMILES>  (1) 
[H][C@@]12CC[C@H](O)[C@@]1(C)CC[C@]1([H])C3=C(CC[C@@]21[H])C=C(O)C=C3

>  <SYNONYMS>  (1) 
(17β)-estra-1,3,5(10)-triene-3,17-diol; 17beta oestradiol; 17β-estra-1,3,5(10)-triene-3,17-diol; 17β-estradiol; 17β-oestradiol; beta-Estradiol; cis-Estradiol; Estradiol; Estradiol-17beta; Estradiolum

$$$$
