
     RDKit          2D

 75 78  0  0  1  0  0  0  0  0999 V2000
    9.5685  -11.9973    0.0000 C   0  0  0  0  0  0  0  0  0  0  0  0
    8.8540  -12.4098    0.0000 C   0  0  0  0  0  0  0  0  0  0  0  0
    8.8540  -13.2348    0.0000 C   0  0  0  0  0  0  0  0  0  0  0  0
    9.5685  -13.6473    0.0000 C   0  0  0  0  0  0  0  0  0  0  0  0
   10.2830  -13.2348    0.0000 C   0  0  0  0  0  0  0  0  0  0  0  0
   10.2830  -12.4098    0.0000 C   0  0  0  0  0  0  0  0  0  0  0  0
   10.9974  -11.9973    0.0000 C   0  0  0  0  0  0  0  0  0  0  0  0
   10.9974  -13.6473    0.0000 C   0  0  0  0  0  0  0  0  0  0  0  0
   11.7119  -13.2348    0.0000 C   0  0  0  0  0  0  0  0  0  0  0  0
   11.7119  -12.4098    0.0000 C   0  0  0  0  0  0  0  0  0  0  0  0
   11.7119  -10.7598    0.0000 C   0  0  0  0  0  0  0  0  0  0  0  0
   10.9974  -11.1723    0.0000 C   0  0  0  0  0  0  0  0  0  0  0  0
   12.4264  -11.9973    0.0000 C   0  0  0  0  0  0  0  0  0  0  0  0
   12.4264  -11.1723    0.0000 C   0  0  0  0  0  0  0  0  0  0  0  0
   13.2110  -10.9174    0.0000 C   0  0  0  0  0  0  0  0  0  0  0  0
   13.2110  -12.2523    0.0000 C   0  0  0  0  0  0  0  0  0  0  0  0
   13.6959  -11.5848    0.0000 C   0  0  0  0  0  0  0  0  0  0  0  0
    8.1396  -13.6473    0.0000 O   0  0  0  0  0  0  0  0  0  0  0  0
   10.2830  -11.5848    0.0000 C   0  0  0  0  0  0  0  0  0  0  0  0
   12.4264  -10.3473    0.0000 C   0  0  0  0  0  0  0  0  0  0  0  0
   10.2830  -10.7598    0.0000 O   0  0  0  0  0  0  0  0  0  0  0  0
   13.2110  -10.0924    0.0000 C   0  0  0  0  0  0  0  0  0  0  0  0
   12.4965   -9.6799    0.0000 O   0  0  0  0  0  0  0  0  0  0  0  0
   13.9254   -9.6799    0.0000 C   0  0  0  0  0  0  0  0  0  0  0  0
   14.6399  -10.0924    0.0000 O   0  0  0  0  0  0  0  0  0  0  0  0
   15.3544   -9.6799    0.0000 C   0  0  0  0  0  0  0  0  0  0  0  0
   15.3544   -8.8549    0.0000 O   0  0  0  0  0  0  0  0  0  0  0  0
   16.0689  -10.0924    0.0000 C   0  0  0  0  0  0  0  0  0  0  0  0
   16.7833   -9.6799    0.0000 N   0  0  0  0  0  0  0  0  0  0  0  0
   16.7833   -8.8549    0.0000 C   0  0  0  0  0  0  0  0  0  0  0  0
   17.4978   -8.4424    0.0000 C   0  0  0  0  0  0  0  0  0  0  0  0
   17.4978  -10.0924    0.0000 C   0  0  0  0  0  0  0  0  0  0  0  0
   18.2123   -9.6799    0.0000 C   0  0  0  0  0  0  0  0  0  0  0  0
   13.9254  -10.5049    0.0000 O   0  0  0  0  0  0  0  0  0  0  0  0
    0.0000    0.0000    0.0000 H   0  0  0  0  0  0  0  0  0  0  0  0
    0.0000    0.0000    0.0000 H   0  0  0  0  0  0  0  0  0  0  0  0
    0.0000    0.0000    0.0000 H   0  0  0  0  0  0  0  0  0  0  0  0
    0.0000    0.0000    0.0000 H   0  0  0  0  0  0  0  0  0  0  0  0
    0.0000    0.0000    0.0000 H   0  0  0  0  0  0  0  0  0  0  0  0
    0.0000    0.0000    0.0000 H   0  0  0  0  0  0  0  0  0  0  0  0
    0.0000    0.0000    0.0000 H   0  0  0  0  0  0  0  0  0  0  0  0
    0.0000    0.0000    0.0000 H   0  0  0  0  0  0  0  0  0  0  0  0
    0.0000    0.0000    0.0000 H   0  0  0  0  0  0  0  0  0  0  0  0
    0.0000    0.0000    0.0000 H   0  0  0  0  0  0  0  0  0  0  0  0
    0.0000    0.0000    0.0000 H   0  0  0  0  0  0  0  0  0  0  0  0
    0.0000    0.0000    0.0000 H   0  0  0  0  0  0  0  0  0  0  0  0
    0.0000    0.0000    0.0000 H   0  0  0  0  0  0  0  0  0  0  0  0
    0.0000    0.0000    0.0000 H   0  0  0  0  0  0  0  0  0  0  0  0
    0.0000    0.0000    0.0000 H   0  0  0  0  0  0  0  0  0  0  0  0
    0.0000    0.0000    0.0000 H   0  0  0  0  0  0  0  0  0  0  0  0
    0.0000    0.0000    0.0000 H   0  0  0  0  0  0  0  0  0  0  0  0
    0.0000    0.0000    0.0000 H   0  0  0  0  0  0  0  0  0  0  0  0
    0.0000    0.0000    0.0000 H   0  0  0  0  0  0  0  0  0  0  0  0
    0.0000    0.0000    0.0000 H   0  0  0  0  0  0  0  0  0  0  0  0
    0.0000    0.0000    0.0000 H   0  0  0  0  0  0  0  0  0  0  0  0
    0.0000    0.0000    0.0000 H   0  0  0  0  0  0  0  0  0  0  0  0
    0.0000    0.0000    0.0000 H   0  0  0  0  0  0  0  0  0  0  0  0
    0.0000    0.0000    0.0000 H   0  0  0  0  0  0  0  0  0  0  0  0
    0.0000    0.0000    0.0000 H   0  0  0  0  0  0  0  0  0  0  0  0
    0.0000    0.0000    0.0000 H   0  0  0  0  0  0  0  0  0  0  0  0
    0.0000    0.0000    0.0000 H   0  0  0  0  0  0  0  0  0  0  0  0
    0.0000    0.0000    0.0000 H   0  0  0  0  0  0  0  0  0  0  0  0
    0.0000    0.0000    0.0000 H   0  0  0  0  0  0  0  0  0  0  0  0
    0.0000    0.0000    0.0000 H   0  0  0  0  0  0  0  0  0  0  0  0
    0.0000    0.0000    0.0000 H   0  0  0  0  0  0  0  0  0  0  0  0
    0.0000    0.0000    0.0000 H   0  0  0  0  0  0  0  0  0  0  0  0
    0.0000    0.0000    0.0000 H   0  0  0  0  0  0  0  0  0  0  0  0
    0.0000    0.0000    0.0000 H   0  0  0  0  0  0  0  0  0  0  0  0
    0.0000    0.0000    0.0000 H   0  0  0  0  0  0  0  0  0  0  0  0
    0.0000    0.0000    0.0000 H   0  0  0  0  0  0  0  0  0  0  0  0
    0.0000    0.0000    0.0000 H   0  0  0  0  0  0  0  0  0  0  0  0
    0.0000    0.0000    0.0000 H   0  0  0  0  0  0  0  0  0  0  0  0
    0.0000    0.0000    0.0000 H   0  0  0  0  0  0  0  0  0  0  0  0
    0.0000    0.0000    0.0000 H   0  0  0  0  0  0  0  0  0  0  0  0
    0.0000    0.0000    0.0000 H   0  0  0  0  0  0  0  0  0  0  0  0
  1  2  1  0
  2  3  1  0
  3  4  1  0
  4  5  2  0
  1  6  1  0
  7  6  1  0
  6  5  1  0
  5  8  1  0
  8  9  1  0
  9 10  1  0
 10 13  1  0
  7 10  1  0
 12  7  1  0
 11 12  1  0
 11 14  1  0
 13 16  1  0
 14 13  1  0
 15 14  1  0
 16 17  1  0
 15 17  1  0
  3 18  2  0
  6 19  1  1
 14 20  1  1
 12 21  1  1
 15 22  1  1
 22 23  2  0
 22 24  1  0
 24 25  1  0
 25 26  1  0
 26 27  2  0
 26 28  1  0
 28 29  1  0
 29 30  1  0
 30 31  1  0
 29 32  1  0
 32 33  1  0
 15 34  1  0
  1 35  1  0
  1 36  1  0
  2 37  1  0
  2 38  1  0
  4 39  1  0
  7 40  1  6
  8 41  1  0
  8 42  1  0
  9 43  1  0
  9 44  1  0
 10 45  1  1
 11 46  1  0
 11 47  1  0
 12 48  1  0
 13 49  1  6
 16 50  1  0
 16 51  1  0
 17 52  1  0
 17 53  1  0
 19 54  1  0
 19 55  1  0
 19 56  1  0
 20 57  1  0
 20 58  1  0
 20 59  1  0
 21 60  1  0
 24 61  1  0
 24 62  1  0
 28 63  1  0
 28 64  1  0
 30 65  1  0
 30 66  1  0
 31 67  1  0
 31 68  1  0
 31 69  1  0
 32 70  1  0
 32 71  1  0
 33 72  1  0
 33 73  1  0
 33 74  1  0
 34 75  1  0
M  END
>  <ALOGPS_LOGP>  (1) 
2.82

>  <ALOGPS_LOGS>  (1) 
-3.75

>  <ALOGPS_SOLUBILITY>  (1) 
8.55e-02 g/l

>  <DATABASE_ID>  (1) 
DB00769

>  <DATABASE_NAME>  (1) 
drugbank

>  <DRUGBANK_ID>  (1) 
DB00769

>  <DRUG_GROUPS>  (1) 
approved

>  <EXACT_MASS>  (1) 
475.293388049

>  <FORMULA>  (1) 
C27H41NO6

>  <GENERIC_NAME>  (1) 
Hydrocortamate

>  <INCHI_IDENTIFIER>  (1) 
InChI=1S/C27H41NO6/c1-5-28(6-2)15-23(32)34-16-22(31)27(33)12-10-20-19-8-7-17-13-18(29)9-11-25(17,3)24(19)21(30)14-26(20,27)4/h13,19-21,24,30,33H,5-12,14-16H2,1-4H3/t19-,20-,21-,24+,25-,26-,27-/m0/s1

>  <INCHI_KEY>  (1) 
FWFVLWGEFDIZMJ-FOMYWIRZSA-N

>  <INTERNATIONAL_BRANDS>  (1) 
Etacort; Magnacort; Ulcort; Ulcort top

>  <JCHEM_ACCEPTOR_COUNT>  (1) 
6

>  <JCHEM_AVERAGE_POLARIZABILITY>  (1) 
53.29414558796018

>  <JCHEM_BIOAVAILABILITY>  (1) 
1

>  <JCHEM_DONOR_COUNT>  (1) 
2

>  <JCHEM_FORMAL_CHARGE>  (1) 
0

>  <JCHEM_GHOSE_FILTER>  (1) 
0

>  <JCHEM_IUPAC>  (1) 
2-[(1S,2R,10S,11S,14R,15S,17S)-14,17-dihydroxy-2,15-dimethyl-5-oxotetracyclo[8.7.0.0²,⁷.0¹¹,¹⁵]heptadec-6-en-14-yl]-2-oxoethyl 2-(diethylamino)acetate

>  <JCHEM_LOGP>  (1) 
2.321406242666667

>  <JCHEM_MDDR_LIKE_RULE>  (1) 
1

>  <JCHEM_NUMBER_OF_RINGS>  (1) 
4

>  <JCHEM_PHYSIOLOGICAL_CHARGE>  (1) 
0

>  <JCHEM_PKA>  (1) 
14.696479909055821

>  <JCHEM_PKA_STRONGEST_ACIDIC>  (1) 
12.607479419290414

>  <JCHEM_PKA_STRONGEST_BASIC>  (1) 
6.433032674856971

>  <JCHEM_POLAR_SURFACE_AREA>  (1) 
104.13999999999999

>  <JCHEM_REFRACTIVITY>  (1) 
129.47769999999997

>  <JCHEM_ROTATABLE_BOND_COUNT>  (1) 
8

>  <JCHEM_RULE_OF_FIVE>  (1) 
1

>  <JCHEM_TRADITIONAL_IUPAC>  (1) 
hidrocortamato

>  <JCHEM_VEBER_RULE>  (1) 
0

>  <MOLECULAR_WEIGHT>  (1) 
475.6175

>  <SALTS>  (1) 
Hydrocortamate Hydrochloride

>  <SECONDARY_ACCESSION_NUMBERS>  (1) 
APRD01018

>  <SMILES>  (1) 
[H][C@@]12CC[C@](O)(C(=O)COC(=O)CN(CC)CC)[C@@]1(C)C[C@H](O)[C@@]1([H])[C@@]2([H])CCC2=CC(=O)CC[C@]12C

$$$$
