
     RDKit          2D

 57 59  0  0  0  0  0  0  0  0999 V2000
   -3.9296   -2.6813    0.0000 N   0  0  0  0  0  0  0  0  0  0  0  0
   -3.2151   -2.2688    0.0000 C   0  0  0  0  0  0  0  0  0  0  0  0
   -3.2151   -1.4438    0.0000 C   0  0  0  0  0  0  0  0  0  0  0  0
   -2.5006   -2.6813    0.0000 N   0  0  0  0  0  0  0  0  0  0  0  0
   -4.6440   -1.4438    0.0000 N   0  0  0  0  0  0  0  0  0  0  0  0
   -1.7862   -2.2688    0.0000 C   0  0  0  0  0  0  0  0  0  0  0  0
   -1.7862   -1.4438    0.0000 C   0  0  0  0  0  0  0  0  0  0  0  0
   -1.0716   -1.0313    0.0000 C   0  0  0  0  0  0  0  0  0  0  0  0
    0.3572   -1.0311    0.0000 C   0  0  0  0  0  0  0  0  0  0  0  0
    1.7861   -1.0311    0.0000 C   0  0  0  0  0  0  0  0  0  0  0  0
    1.0717   -1.4436    0.0000 C   0  0  0  0  0  0  0  0  0  0  0  0
    0.3572   -0.2061    0.0000 C   0  0  0  0  0  0  0  0  0  0  0  0
    1.0717    0.2063    0.0000 C   0  0  0  0  0  0  0  0  0  0  0  0
    1.7861   -0.2061    0.0000 C   0  0  0  0  0  0  0  0  0  0  0  0
    2.5006    0.2063    0.0000 C   0  0  0  0  0  0  0  0  0  0  0  0
    2.5006    1.0313    0.0000 O   0  0  0  0  0  0  0  0  0  0  0  0
    3.2150   -0.2061    0.0000 N   0  0  0  0  0  0  0  0  0  0  0  0
    3.9296    2.6813    0.0000 O   0  0  0  0  0  0  0  0  0  0  0  0
    3.9296    0.2063    0.0000 C   0  0  0  0  0  0  0  0  0  0  0  0
    5.3585    0.2063    0.0000 O   0  0  0  0  0  0  0  0  0  0  0  0
    4.6439   -0.2061    0.0000 C   0  0  0  0  0  0  0  0  0  0  0  0
    4.6439   -1.0311    0.0000 O   0  0  0  0  0  0  0  0  0  0  0  0
    3.9296    1.0313    0.0000 C   0  0  0  0  0  0  0  0  0  0  0  0
    4.6441    1.4438    0.0000 C   0  0  0  0  0  0  0  0  0  0  0  0
    4.6441    2.2688    0.0000 C   0  0  0  0  0  0  0  0  0  0  0  0
    5.3585    2.6813    0.0000 O   0  0  0  0  0  0  0  0  0  0  0  0
   -3.9296   -1.0313    0.0000 C   0  0  0  0  0  0  0  0  0  0  0  0
   -3.9296   -0.2063    0.0000 O   0  0  0  0  0  0  0  0  0  0  0  0
   -4.6440   -2.2688    0.0000 C   0  0  0  0  0  0  0  0  0  0  0  0
   -5.3585   -2.6813    0.0000 N   0  0  0  0  0  0  0  0  0  0  0  0
   -0.3572   -1.4438    0.0000 N   0  0  0  0  0  0  0  0  0  0  0  0
   -2.5006   -1.0313    0.0000 N   0  0  0  0  0  0  0  0  0  0  0  0
   -1.7861    0.2061    0.0000 O   0  0  0  0  0  0  0  0  0  0  0  0
   -2.5006   -0.2063    0.0000 C   0  0  0  0  0  0  0  0  0  0  0  0
    0.0000    0.0000    0.0000 H   0  0  0  0  0  0  0  0  0  0  0  0
    0.0000    0.0000    0.0000 H   0  0  0  0  0  0  0  0  0  0  0  0
    0.0000    0.0000    0.0000 H   0  0  0  0  0  0  0  0  0  0  0  0
    0.0000    0.0000    0.0000 H   0  0  0  0  0  0  0  0  0  0  0  0
    0.0000    0.0000    0.0000 H   0  0  0  0  0  0  0  0  0  0  0  0
    0.0000    0.0000    0.0000 H   0  0  0  0  0  0  0  0  0  0  0  0
    0.0000    0.0000    0.0000 H   0  0  0  0  0  0  0  0  0  0  0  0
    0.0000    0.0000    0.0000 H   0  0  0  0  0  0  0  0  0  0  0  0
    0.0000    0.0000    0.0000 H   0  0  0  0  0  0  0  0  0  0  0  0
    0.0000    0.0000    0.0000 H   0  0  0  0  0  0  0  0  0  0  0  0
    0.0000    0.0000    0.0000 H   0  0  0  0  0  0  0  0  0  0  0  0
    0.0000    0.0000    0.0000 H   0  0  0  0  0  0  0  0  0  0  0  0
    0.0000    0.0000    0.0000 H   0  0  0  0  0  0  0  0  0  0  0  0
    0.0000    0.0000    0.0000 H   0  0  0  0  0  0  0  0  0  0  0  0
    0.0000    0.0000    0.0000 H   0  0  0  0  0  0  0  0  0  0  0  0
    0.0000    0.0000    0.0000 H   0  0  0  0  0  0  0  0  0  0  0  0
    0.0000    0.0000    0.0000 H   0  0  0  0  0  0  0  0  0  0  0  0
    0.0000    0.0000    0.0000 H   0  0  0  0  0  0  0  0  0  0  0  0
    0.0000    0.0000    0.0000 H   0  0  0  0  0  0  0  0  0  0  0  0
    0.0000    0.0000    0.0000 H   0  0  0  0  0  0  0  0  0  0  0  0
    0.0000    0.0000    0.0000 H   0  0  0  0  0  0  0  0  0  0  0  0
    0.0000    0.0000    0.0000 H   0  0  0  0  0  0  0  0  0  0  0  0
    0.0000    0.0000    0.0000 H   0  0  0  0  0  0  0  0  0  0  0  0
 29  1  2  0
 29  5  1  0
  1  2  1  0
  2  3  2  0
  2  4  1  0
  3 32  1  0
  3 27  1  0
 32  7  1  0
  6  4  1  0
 27  5  1  0
  7  8  1  0
  8 31  1  0
 31  9  1  0
 11  9  1  0
  9 12  2  0
 10 11  2  0
 10 14  1  0
 12 13  1  0
 13 14  2  0
 14 15  1  0
 15 17  1  0
 15 16  2  0
 19 17  1  1
 25 18  2  0
 19 23  1  0
 19 21  1  0
 21 20  1  0
 21 22  2  0
 23 24  1  0
 24 25  1  0
 25 26  1  0
  6  7  1  0
 27 28  2  0
 29 30  1  0
 32 34  1  0
 34 33  2  0
  4 35  1  0
  5 36  1  0
  6 37  1  0
  6 38  1  0
  7 39  1  0
  8 40  1  0
  8 41  1  0
 10 42  1  0
 11 43  1  0
 12 44  1  0
 13 45  1  0
 17 46  1  0
 19 47  1  0
 20 48  1  0
 23 49  1  0
 23 50  1  0
 24 51  1  0
 24 52  1  0
 26 53  1  0
 30 54  1  0
 30 55  1  0
 31 56  1  0
 34 57  1  0
M  END
>  <ALOGPS_LOGP>  (1) 
-0.46

>  <ALOGPS_LOGS>  (1) 
-3.20

>  <ALOGPS_SOLUBILITY>  (1) 
2.97e-01 g/l

>  <DATABASE_ID>  (1) 
DB00650

>  <DATABASE_NAME>  (1) 
drugbank

>  <DRUGBANK_ID>  (1) 
DB00650

>  <DRUG_GROUPS>  (1) 
approved

>  <EXACT_MASS>  (1) 
473.165896109

>  <FORMULA>  (1) 
C20H23N7O7

>  <GENERIC_NAME>  (1) 
Leucovorin

>  <INCHI_IDENTIFIER>  (1) 
InChI=1S/C20H23N7O7/c21-20-25-16-15(18(32)26-20)27(9-28)12(8-23-16)7-22-11-3-1-10(2-4-11)17(31)24-13(19(33)34)5-6-14(29)30/h1-4,9,12-13,22H,5-8H2,(H,24,31)(H,29,30)(H,33,34)(H4,21,23,25,26,32)/t12?,13-/m0/s1

>  <INCHI_KEY>  (1) 
VVIAGPKUTFNRDU-ABLWVSNPSA-N

>  <INTERNATIONAL_BRANDS>  (1) 
Uzel; Wellcovorin

>  <JCHEM_ACCEPTOR_COUNT>  (1) 
11

>  <JCHEM_ATOM_COUNT>  (1) 
57

>  <JCHEM_AVERAGE_POLARIZABILITY>  (1) 
46.326272870088374

>  <JCHEM_BIOAVAILABILITY>  (1) 
0

>  <JCHEM_DONOR_COUNT>  (1) 
7

>  <JCHEM_FORMAL_CHARGE>  (1) 
0

>  <JCHEM_GHOSE_FILTER>  (1) 
0

>  <JCHEM_IUPAC>  (1) 
(2S)-2-[(4-{[(2-amino-5-formyl-4-oxo-3,4,5,6,7,8-hexahydropteridin-6-yl)methyl]amino}phenyl)formamido]pentanedioic acid

>  <JCHEM_LOGP>  (1) 
-2.335086760296191

>  <JCHEM_MDDR_LIKE_RULE>  (1) 
1

>  <JCHEM_NUMBER_OF_RINGS>  (1) 
3

>  <JCHEM_PHYSIOLOGICAL_CHARGE>  (1) 
-2

>  <JCHEM_PKA>  (1) 
4.208498843729758

>  <JCHEM_PKA_STRONGEST_ACIDIC>  (1) 
3.4738559631646653

>  <JCHEM_PKA_STRONGEST_BASIC>  (1) 
2.809548222692691

>  <JCHEM_POLAR_SURFACE_AREA>  (1) 
215.55

>  <JCHEM_REFRACTIVITY>  (1) 
126.66199999999996

>  <JCHEM_ROTATABLE_BOND_COUNT>  (1) 
9

>  <JCHEM_RULE_OF_FIVE>  (1) 
0

>  <JCHEM_TRADITIONAL_IUPAC>  (1) 
5-formyltetrahydrofolic acid

>  <JCHEM_VEBER_RULE>  (1) 
0

>  <MOLECULAR_WEIGHT>  (1) 
473.446

>  <PRODUCTS>  (1) 
EnBrace HR; EnLyte; Lederle Leucovorin; Lederle Leucovorin - Liq Im IV 10mg/ml; Lederle Leucovorin 350mg/vial; Lederle Leucovorin 50mg/vial; Lederle Leucovorin Liq 10mg/ml; Lederle Leucovorin-pws Im IV 350mg/vial; Lederle Leucovorin-pws Im IV 50mg/vial; Leucovorin; Leucovorin Calcium; Leucovorin Calcium Inj 10mg/ml; Leucovorin Calcium Injection; Leucovorin Calcium Injection USP; Leucovorin Calcium Tab 5mg; Pyrimethamine Leucovorin

>  <SALTS>  (1) 
Leucovorin calcium; Leucovorin calcium pentahydrate; Leucovorin sodium

>  <SECONDARY_ACCESSION_NUMBERS>  (1) 
APRD00698

>  <SMILES>  (1) 
[H]C(=O)N1C(CNC2=CC=C(C=C2)C(=O)N[C@@H](CCC(O)=O)C(O)=O)CNC2=C1C(=O)NC(N)=N2

>  <SYNONYMS>  (1) 
(5-formyl-5,6,7,8-tetrahydropteroyl)glutamate; 10-Formyl-7,8-dihydrofolic acid; 5-Formyl-5,6,7,8-tetrahydrofolic acid; 5-Formyl-5,6,7,8-tetrahydropteroyl-L-glutamic acid; 5-Formyltetrahydrofolate; 5-formyltetrahydrofolic acid; Acide folinique; folinate; Folinic acid; L(-)-5-Formyl-5,6,7,8-tetrahydrofolic acid; Leucovorinum; N-(5-formyl-5,6,7,8-tetrahydropteroyl)-L-glutamic acid; N5-Formyl-5,6,7,8-tetrahydrofolic acid; N5-Formyltetrahydrofolic acid

$$$$
