904
     RDKit          2D

 41 44  0  0  1  0  0  0  0  0999 V2000
    4.2713   -1.2750    0.0000 O   0  0  0  0  0  0  0  0  0  0  0  0
    3.5862    1.3159    0.0000 N   0  0  0  0  0  0  0  0  0  0  0  0
    6.6362   -0.7883    0.0000 N   0  0  0  0  0  0  0  0  0  0  0  0
    7.9103   -0.9271    0.0000 N   0  0  0  0  0  0  0  0  0  0  0  0
    5.3330   -0.3593    0.0000 C   0  0  0  0  0  0  0  0  0  0  0  0
    5.5880    0.4254    0.0000 C   0  0  0  0  0  0  0  0  0  0  0  0
    5.0312    1.0343    0.0000 C   0  0  0  0  0  0  0  0  0  0  0  0
    4.2270    0.8503    0.0000 C   0  0  0  0  0  0  0  0  0  0  0  0
    3.9822    0.0970    0.0000 C   0  0  0  0  0  0  0  0  0  0  0  0
    4.5248   -0.5246    0.0000 C   0  0  0  0  0  0  0  0  0  0  0  0
    5.8608   -0.9500    0.0000 C   0  0  0  0  0  0  0  0  0  0  0  0
    3.1901    0.0970    0.0000 C   0  0  0  0  0  0  0  0  0  0  0  0
    2.9453    0.8503    0.0000 C   0  0  0  0  0  0  0  0  0  0  0  0
    3.5862    2.1080    0.0000 C   0  0  0  0  0  0  0  0  0  0  0  0
    2.6475   -0.5246    0.0000 C   0  0  0  0  0  0  0  0  0  0  0  0
    2.1410    1.0343    0.0000 C   0  0  0  0  0  0  0  0  0  0  0  0
    7.2228   -1.3206    0.0000 C   0  0  0  0  0  0  0  0  0  0  0  0
    6.9613   -0.0659    0.0000 C   0  0  0  0  0  0  0  0  0  0  0  0
    1.8392   -0.3593    0.0000 C   0  0  0  0  0  0  0  0  0  0  0  0
    1.5842    0.4254    0.0000 C   0  0  0  0  0  0  0  0  0  0  0  0
    7.7487   -0.1518    0.0000 C   0  0  0  0  0  0  0  0  0  0  0  0
    7.1370   -2.1080    0.0000 C   0  0  0  0  0  0  0  0  0  0  0  0
    0.0000    0.0000    0.0000 H   0  0  0  0  0  0  0  0  0  0  0  0
    0.0000    0.0000    0.0000 H   0  0  0  0  0  0  0  0  0  0  0  0
    0.0000    0.0000    0.0000 H   0  0  0  0  0  0  0  0  0  0  0  0
    0.0000    0.0000    0.0000 H   0  0  0  0  0  0  0  0  0  0  0  0
    0.0000    0.0000    0.0000 H   0  0  0  0  0  0  0  0  0  0  0  0
    0.0000    0.0000    0.0000 H   0  0  0  0  0  0  0  0  0  0  0  0
    0.0000    0.0000    0.0000 H   0  0  0  0  0  0  0  0  0  0  0  0
    0.0000    0.0000    0.0000 H   0  0  0  0  0  0  0  0  0  0  0  0
    0.0000    0.0000    0.0000 H   0  0  0  0  0  0  0  0  0  0  0  0
    0.0000    0.0000    0.0000 H   0  0  0  0  0  0  0  0  0  0  0  0
    0.0000    0.0000    0.0000 H   0  0  0  0  0  0  0  0  0  0  0  0
    0.0000    0.0000    0.0000 H   0  0  0  0  0  0  0  0  0  0  0  0
    0.0000    0.0000    0.0000 H   0  0  0  0  0  0  0  0  0  0  0  0
    0.0000    0.0000    0.0000 H   0  0  0  0  0  0  0  0  0  0  0  0
    0.0000    0.0000    0.0000 H   0  0  0  0  0  0  0  0  0  0  0  0
    0.0000    0.0000    0.0000 H   0  0  0  0  0  0  0  0  0  0  0  0
    0.0000    0.0000    0.0000 H   0  0  0  0  0  0  0  0  0  0  0  0
    0.0000    0.0000    0.0000 H   0  0  0  0  0  0  0  0  0  0  0  0
    0.0000    0.0000    0.0000 H   0  0  0  0  0  0  0  0  0  0  0  0
  1 10  2  0
  2  8  1  0
  2 13  1  0
  2 14  1  0
  3 11  1  0
  3 17  1  0
  3 18  1  0
  4 17  2  0
  4 21  1  0
  5  6  1  0
  5 10  1  0
  5 11  1  0
  6  7  1  0
  7  8  1  0
  8  9  2  0
  9 10  1  0
  9 12  1  0
 12 13  2  0
 12 15  1  0
 13 16  1  0
 15 19  2  0
 16 20  2  0
 17 22  1  0
 18 21  2  0
 19 20  1  0
  5 23  1  0
  6 24  1  0
  6 25  1  0
  7 26  1  0
  7 27  1  0
 11 28  1  0
 11 29  1  0
 14 30  1  0
 14 31  1  0
 14 32  1  0
 15 33  1  0
 16 34  1  0
 18 35  1  0
 19 36  1  0
 20 37  1  0
 21 38  1  0
 22 39  1  0
 22 40  1  0
 22 41  1  0
M  END
>  <ALOGPS_LOGP>  (1) 
2.56

>  <ALOGPS_LOGS>  (1) 
-3.07

>  <ALOGPS_SOLUBILITY>  (1) 
2.48e-01 g/l

>  <DATABASE_ID>  (1) 
DB00904

>  <DATABASE_NAME>  (1) 
drugbank

>  <DRUGBANK_ID>  (1) 
DB00904

>  <DRUG_GROUPS>  (1) 
approved

>  <EXACT_MASS>  (1) 
293.152812245

>  <FORMULA>  (1) 
C18H19N3O

>  <GENERIC_NAME>  (1) 
Ondansetron

>  <INCHI_IDENTIFIER>  (1) 
InChI=1S/C18H19N3O/c1-12-19-9-10-21(12)11-13-7-8-16-17(18(13)22)14-5-3-4-6-15(14)20(16)2/h3-6,9-10,13H,7-8,11H2,1-2H3

>  <INCHI_KEY>  (1) 
FELGMEQIXOGIFQ-UHFFFAOYSA-N

>  <INTERNATIONAL_BRANDS>  (1) 
Zophren

>  <JCHEM_ACCEPTOR_COUNT>  (1) 
2

>  <JCHEM_AVERAGE_POLARIZABILITY>  (1) 
33.16037978817779

>  <JCHEM_BIOAVAILABILITY>  (1) 
1

>  <JCHEM_DONOR_COUNT>  (1) 
0

>  <JCHEM_FORMAL_CHARGE>  (1) 
0

>  <JCHEM_GHOSE_FILTER>  (1) 
1

>  <JCHEM_IUPAC>  (1) 
9-methyl-3-[(2-methyl-1H-imidazol-1-yl)methyl]-2,3,4,9-tetrahydro-1H-carbazol-4-one

>  <JCHEM_LOGP>  (1) 
2.3499651703333324

>  <JCHEM_MDDR_LIKE_RULE>  (1) 
0

>  <JCHEM_NUMBER_OF_RINGS>  (1) 
4

>  <JCHEM_PHYSIOLOGICAL_CHARGE>  (1) 
1

>  <JCHEM_PKA_STRONGEST_ACIDIC>  (1) 
15.385697836647786

>  <JCHEM_PKA_STRONGEST_BASIC>  (1) 
7.344313880827463

>  <JCHEM_POLAR_SURFACE_AREA>  (1) 
39.82

>  <JCHEM_REFRACTIVITY>  (1) 
86.77950000000001

>  <JCHEM_ROTATABLE_BOND_COUNT>  (1) 
2

>  <JCHEM_RULE_OF_FIVE>  (1) 
1

>  <JCHEM_TRADITIONAL_IUPAC>  (1) 
ondansetron

>  <JCHEM_VEBER_RULE>  (1) 
1

>  <MOLECULAR_WEIGHT>  (1) 
293.363

>  <PRODUCTS>  (1) 
Act Ondansetron; Ag-ondansetron; Apo-ondansetron; Ava-ondansetron; Bio-ondansetron; Ccp-ondansetron; Dom-ondansetron; Ipg-ondansetron; Jamp-ondansetron; Mar-ondansetron; Mint-ondansetron; Mylan-ondansetron; Mylan-ondansetron Injection; Nat-ondansetron; Nu-ondansetron; Ondansetron; Ondansetron HCL; Ondansetron Hydrochloride; Ondansetron Hydrochloride Dihydrate Injection; Ondansetron Hydrochloride and Dextrose; Ondansetron Injection; Ondansetron Injection BP; Ondansetron Injection USP; Ondansetron Injection USP     -(preservative Free); Ondansetron Injection USP     -(with Preservative); Ondansetron Injection USP -(preservative Free); Ondansetron Injection USP -(with Preservatives); Ondansetron Injection, USP; Ondansetron Omega -(preservative Free - Single Dose Vials); Ondansetron Omega -(with Preservative - Multidose Vial); Ondansetron hydrochloride and dextrose; Ondansetron-odan; Ondissolve Odf; PHL-ondansetron; PMS-ondansetron; Priva-ondansetron; Ran-ondansetron; Ratio-ondansetron; Riva-ondansetron; Sandoz Ondansetron; Sandoz Ondansetron ODT; Septa-ondansetron; Teva-ondansetron; Van-ondansetron; Zofran; Zofran Inj 2mg/ml; Zofran ODT; Zofran Tab 4mg; Zofran Tab 8mg; Zuplenz; Zym-ondansetron

>  <SALTS>  (1) 
Ondansetron hydrochloride; Ondansetron hydrochloride dihydrate

>  <SECONDARY_ACCESSION_NUMBERS>  (1) 
APRD00481

>  <SMILES>  (1) 
CN1C2=C(C3=CC=CC=C13)C(=O)C(CN1C=CN=C1C)CC2

$$$$
