593
     RDKit          2D

 21 21  0  0  1  0  0  0  0  0999 V2000
    4.5544   -0.6800    0.0000 O   0  0  0  0  0  0  0  0  0  0  0  0
    1.6501   -0.6800    0.0000 O   0  0  0  0  0  0  0  0  0  0  0  0
    3.1023   -0.9100    0.0000 N   0  0  0  0  0  0  0  0  0  0  0  0
    3.5148    0.3596    0.0000 C   0  0  0  0  0  0  0  0  0  0  0  0
    2.6897    0.3596    0.0000 C   0  0  0  0  0  0  0  0  0  0  0  0
    4.2994    0.6146    0.0000 C   0  0  0  0  0  0  0  0  0  0  0  0
    3.7697   -0.4251    0.0000 C   0  0  0  0  0  0  0  0  0  0  0  0
    3.5148    1.1846    0.0000 C   0  0  0  0  0  0  0  0  0  0  0  0
    2.4348   -0.4251    0.0000 C   0  0  0  0  0  0  0  0  0  0  0  0
    4.4709    1.4216    0.0000 C   0  0  0  0  0  0  0  0  0  0  0  0
    0.0000    0.0000    0.0000 H   0  0  0  0  0  0  0  0  0  0  0  0
    0.0000    0.0000    0.0000 H   0  0  0  0  0  0  0  0  0  0  0  0
    0.0000    0.0000    0.0000 H   0  0  0  0  0  0  0  0  0  0  0  0
    0.0000    0.0000    0.0000 H   0  0  0  0  0  0  0  0  0  0  0  0
    0.0000    0.0000    0.0000 H   0  0  0  0  0  0  0  0  0  0  0  0
    0.0000    0.0000    0.0000 H   0  0  0  0  0  0  0  0  0  0  0  0
    0.0000    0.0000    0.0000 H   0  0  0  0  0  0  0  0  0  0  0  0
    0.0000    0.0000    0.0000 H   0  0  0  0  0  0  0  0  0  0  0  0
    0.0000    0.0000    0.0000 H   0  0  0  0  0  0  0  0  0  0  0  0
    0.0000    0.0000    0.0000 H   0  0  0  0  0  0  0  0  0  0  0  0
    0.0000    0.0000    0.0000 H   0  0  0  0  0  0  0  0  0  0  0  0
  1  7  2  0
  2  9  2  0
  3  7  1  0
  3  9  1  0
  4  5  1  0
  4  6  1  0
  4  7  1  0
  4  8  1  0
  5  9  1  0
  6 10  1  0
  3 11  1  0
  5 12  1  0
  5 13  1  0
  6 14  1  0
  6 15  1  0
  8 16  1  0
  8 17  1  0
  8 18  1  0
 10 19  1  0
 10 20  1  0
 10 21  1  0
M  END
>  <ALOGPS_LOGP>  (1) 
0.10

>  <ALOGPS_LOGS>  (1) 
-0.15

>  <ALOGPS_SOLUBILITY>  (1) 
1.01e+02 g/l

>  <DATABASE_ID>  (1) 
DB00593

>  <DATABASE_NAME>  (1) 
drugbank

>  <DRUGBANK_ID>  (1) 
DB00593

>  <DRUG_GROUPS>  (1) 
approved

>  <EXACT_MASS>  (1) 
141.078978601

>  <FORMULA>  (1) 
C7H11NO2

>  <GENERIC_NAME>  (1) 
Ethosuximide

>  <INCHI_IDENTIFIER>  (1) 
InChI=1S/C7H11NO2/c1-3-7(2)4-5(9)8-6(7)10/h3-4H2,1-2H3,(H,8,9,10)

>  <INCHI_KEY>  (1) 
HAPOVYFOVVWLRS-UHFFFAOYSA-N

>  <INTERNATIONAL_BRANDS>  (1) 
Emeside; Ethymal; Etoxin; Petimid; Petinimid; Petnidan; Suxilep; Suxinutin; Zarondan

>  <JCHEM_ACCEPTOR_COUNT>  (1) 
2

>  <JCHEM_AVERAGE_POLARIZABILITY>  (1) 
14.449275047815426

>  <JCHEM_BIOAVAILABILITY>  (1) 
1

>  <JCHEM_DONOR_COUNT>  (1) 
1

>  <JCHEM_FORMAL_CHARGE>  (1) 
0

>  <JCHEM_GHOSE_FILTER>  (1) 
0

>  <JCHEM_IUPAC>  (1) 
3-ethyl-3-methylpyrrolidine-2,5-dione

>  <JCHEM_LOGP>  (1) 
0.5500976843333328

>  <JCHEM_MDDR_LIKE_RULE>  (1) 
0

>  <JCHEM_NUMBER_OF_RINGS>  (1) 
1

>  <JCHEM_PHYSIOLOGICAL_CHARGE>  (1) 
0

>  <JCHEM_PKA_STRONGEST_ACIDIC>  (1) 
10.726963337001482

>  <JCHEM_PKA_STRONGEST_BASIC>  (1) 
-6.601388869567973

>  <JCHEM_POLAR_SURFACE_AREA>  (1) 
46.17

>  <JCHEM_REFRACTIVITY>  (1) 
35.9579

>  <JCHEM_ROTATABLE_BOND_COUNT>  (1) 
1

>  <JCHEM_RULE_OF_FIVE>  (1) 
1

>  <JCHEM_TRADITIONAL_IUPAC>  (1) 
ethosuximide

>  <JCHEM_VEBER_RULE>  (1) 
0

>  <MOLECULAR_WEIGHT>  (1) 
141.1677

>  <PRODUCTS>  (1) 
Ethosuximide; Zarontin; Zarontin Cap 250mg; Zarontin Syr 250mg/5ml

>  <SECONDARY_ACCESSION_NUMBERS>  (1) 
APRD00318

>  <SMILES>  (1) 
CCC1(C)CC(=O)NC1=O

>  <SYNONYMS>  (1) 
(±)-2-ethyl-2-methylsuccinimide; 2-ethyl-2-methylsuccinimide; 3-ethyl-3-methyl-2,5-pyrrolidinedione; Atysmal; Ethosuximid; Ethosuximidum; Etosuximida; Thilopemal; γ-ethyl-γ-methyl-succinimide

$$$$
