804
     RDKit          2D

 57 58  0  0  0  0  0  0  0  0999 V2000
    4.5376   -0.2467    0.0000 O   0  0  0  0  0  0  0  0  0  0  0  0
    5.5058    0.5658    0.0000 O   0  0  0  0  0  0  0  0  0  0  0  0
    2.8876    1.1823    0.0000 N   0  0  0  0  0  0  0  0  0  0  0  0
    5.7751   -0.9612    0.0000 C   0  0  0  0  0  0  0  0  0  0  0  0
    6.4071   -0.4309    0.0000 C   0  0  0  0  0  0  0  0  0  0  0  0
    5.0607   -1.3737    0.0000 C   0  0  0  0  0  0  0  0  0  0  0  0
    6.4896   -1.3737    0.0000 C   0  0  0  0  0  0  0  0  0  0  0  0
    6.2639    0.3816    0.0000 C   0  0  0  0  0  0  0  0  0  0  0  0
    7.1824   -0.7131    0.0000 C   0  0  0  0  0  0  0  0  0  0  0  0
    5.0607   -2.1988    0.0000 C   0  0  0  0  0  0  0  0  0  0  0  0
    6.4896   -2.1988    0.0000 C   0  0  0  0  0  0  0  0  0  0  0  0
    6.8958    0.9119    0.0000 C   0  0  0  0  0  0  0  0  0  0  0  0
    7.8144   -0.1827    0.0000 C   0  0  0  0  0  0  0  0  0  0  0  0
    5.7751   -2.6113    0.0000 C   0  0  0  0  0  0  0  0  0  0  0  0
    7.6711    0.6297    0.0000 C   0  0  0  0  0  0  0  0  0  0  0  0
    5.3626   -0.2467    0.0000 C   0  0  0  0  0  0  0  0  0  0  0  0
    4.1251    0.4678    0.0000 C   0  0  0  0  0  0  0  0  0  0  0  0
    3.3001    0.4678    0.0000 C   0  0  0  0  0  0  0  0  0  0  0  0
    2.0625    1.1823    0.0000 C   0  0  0  0  0  0  0  0  0  0  0  0
    3.3001    1.8967    0.0000 C   0  0  0  0  0  0  0  0  0  0  0  0
    1.6500    1.8967    0.0000 C   0  0  0  0  0  0  0  0  0  0  0  0
    2.8876    2.6113    0.0000 C   0  0  0  0  0  0  0  0  0  0  0  0
    0.0000    0.0000    0.0000 H   0  0  0  0  0  0  0  0  0  0  0  0
    0.0000    0.0000    0.0000 H   0  0  0  0  0  0  0  0  0  0  0  0
    0.0000    0.0000    0.0000 H   0  0  0  0  0  0  0  0  0  0  0  0
    0.0000    0.0000    0.0000 H   0  0  0  0  0  0  0  0  0  0  0  0
    0.0000    0.0000    0.0000 H   0  0  0  0  0  0  0  0  0  0  0  0
    0.0000    0.0000    0.0000 H   0  0  0  0  0  0  0  0  0  0  0  0
    0.0000    0.0000    0.0000 H   0  0  0  0  0  0  0  0  0  0  0  0
    0.0000    0.0000    0.0000 H   0  0  0  0  0  0  0  0  0  0  0  0
    0.0000    0.0000    0.0000 H   0  0  0  0  0  0  0  0  0  0  0  0
    0.0000    0.0000    0.0000 H   0  0  0  0  0  0  0  0  0  0  0  0
    0.0000    0.0000    0.0000 H   0  0  0  0  0  0  0  0  0  0  0  0
    0.0000    0.0000    0.0000 H   0  0  0  0  0  0  0  0  0  0  0  0
    0.0000    0.0000    0.0000 H   0  0  0  0  0  0  0  0  0  0  0  0
    0.0000    0.0000    0.0000 H   0  0  0  0  0  0  0  0  0  0  0  0
    0.0000    0.0000    0.0000 H   0  0  0  0  0  0  0  0  0  0  0  0
    0.0000    0.0000    0.0000 H   0  0  0  0  0  0  0  0  0  0  0  0
    0.0000    0.0000    0.0000 H   0  0  0  0  0  0  0  0  0  0  0  0
    0.0000    0.0000    0.0000 H   0  0  0  0  0  0  0  0  0  0  0  0
    0.0000    0.0000    0.0000 H   0  0  0  0  0  0  0  0  0  0  0  0
    0.0000    0.0000    0.0000 H   0  0  0  0  0  0  0  0  0  0  0  0
    0.0000    0.0000    0.0000 H   0  0  0  0  0  0  0  0  0  0  0  0
    0.0000    0.0000    0.0000 H   0  0  0  0  0  0  0  0  0  0  0  0
    0.0000    0.0000    0.0000 H   0  0  0  0  0  0  0  0  0  0  0  0
    0.0000    0.0000    0.0000 H   0  0  0  0  0  0  0  0  0  0  0  0
    0.0000    0.0000    0.0000 H   0  0  0  0  0  0  0  0  0  0  0  0
    0.0000    0.0000    0.0000 H   0  0  0  0  0  0  0  0  0  0  0  0
    0.0000    0.0000    0.0000 H   0  0  0  0  0  0  0  0  0  0  0  0
    0.0000    0.0000    0.0000 H   0  0  0  0  0  0  0  0  0  0  0  0
    0.0000    0.0000    0.0000 H   0  0  0  0  0  0  0  0  0  0  0  0
    0.0000    0.0000    0.0000 H   0  0  0  0  0  0  0  0  0  0  0  0
    0.0000    0.0000    0.0000 H   0  0  0  0  0  0  0  0  0  0  0  0
    0.0000    0.0000    0.0000 H   0  0  0  0  0  0  0  0  0  0  0  0
    0.0000    0.0000    0.0000 H   0  0  0  0  0  0  0  0  0  0  0  0
    0.0000    0.0000    0.0000 H   0  0  0  0  0  0  0  0  0  0  0  0
    0.0000    0.0000    0.0000 H   0  0  0  0  0  0  0  0  0  0  0  0
  1 16  1  0
  1 17  1  0
  2 16  2  0
  3 18  1  0
  3 19  1  0
  3 20  1  0
  4  5  1  0
  4  6  1  0
  4  7  1  0
  4 16  1  0
  5  8  1  0
  5  9  1  0
  6 10  1  0
  7 11  1  0
  8 12  1  0
  9 13  1  0
 10 14  1  0
 11 14  1  0
 12 15  1  0
 13 15  1  0
 17 18  1  0
 19 21  1  0
 20 22  1  0
  5 23  1  0
  6 24  1  0
  6 25  1  0
  7 26  1  0
  7 27  1  0
  8 28  1  0
  8 29  1  0
  9 30  1  0
  9 31  1  0
 10 32  1  0
 10 33  1  0
 11 34  1  0
 11 35  1  0
 12 36  1  0
 12 37  1  0
 13 38  1  0
 13 39  1  0
 14 40  1  0
 14 41  1  0
 15 42  1  0
 15 43  1  0
 17 44  1  0
 17 45  1  0
 18 46  1  0
 18 47  1  0
 19 48  1  0
 19 49  1  0
 20 50  1  0
 20 51  1  0
 21 52  1  0
 21 53  1  0
 21 54  1  0
 22 55  1  0
 22 56  1  0
 22 57  1  0
M  END
>  <ALOGPS_LOGP>  (1) 
5.82

>  <ALOGPS_LOGS>  (1) 
-4.98

>  <ALOGPS_SOLUBILITY>  (1) 
3.27e-03 g/l

>  <DATABASE_ID>  (1) 
DB00804

>  <DATABASE_NAME>  (1) 
drugbank

>  <DRUGBANK_ID>  (1) 
DB00804

>  <DRUG_GROUPS>  (1) 
approved

>  <EXACT_MASS>  (1) 
309.266779369

>  <FORMULA>  (1) 
C19H35NO2

>  <GENERIC_NAME>  (1) 
Dicyclomine

>  <INCHI_IDENTIFIER>  (1) 
InChI=1S/C19H35NO2/c1-3-20(4-2)15-16-22-18(21)19(13-9-6-10-14-19)17-11-7-5-8-12-17/h17H,3-16H2,1-2H3

>  <INCHI_KEY>  (1) 
CURUTKGFNZGFSE-UHFFFAOYSA-N

>  <INTERNATIONAL_BRANDS>  (1) 
Byclomine; Di-Spaz; Dibent; Dilomine; Dyspas; Merbentyl

>  <JCHEM_ACCEPTOR_COUNT>  (1) 
2

>  <JCHEM_AVERAGE_POLARIZABILITY>  (1) 
37.38527172658855

>  <JCHEM_BIOAVAILABILITY>  (1) 
1

>  <JCHEM_DONOR_COUNT>  (1) 
0

>  <JCHEM_FORMAL_CHARGE>  (1) 
0

>  <JCHEM_GHOSE_FILTER>  (1) 
1

>  <JCHEM_IUPAC>  (1) 
2-(diethylamino)ethyl 1-cyclohexylcyclohexane-1-carboxylate

>  <JCHEM_LOGP>  (1) 
4.925893146666668

>  <JCHEM_MDDR_LIKE_RULE>  (1) 
0

>  <JCHEM_NUMBER_OF_RINGS>  (1) 
2

>  <JCHEM_PHYSIOLOGICAL_CHARGE>  (1) 
1

>  <JCHEM_PKA_STRONGEST_BASIC>  (1) 
8.962051964023164

>  <JCHEM_POLAR_SURFACE_AREA>  (1) 
29.54

>  <JCHEM_REFRACTIVITY>  (1) 
91.78269999999998

>  <JCHEM_ROTATABLE_BOND_COUNT>  (1) 
8

>  <JCHEM_RULE_OF_FIVE>  (1) 
1

>  <JCHEM_TRADITIONAL_IUPAC>  (1) 
bentyl

>  <JCHEM_VEBER_RULE>  (1) 
1

>  <MOLECULAR_WEIGHT>  (1) 
309.4867

>  <PRODUCTS>  (1) 
Bentyl; Bentylol; Bentylol Dospan 30mg; Bentylol Inj 10mg/ml; Bentylol Tablet 10mg; Bentylol Tablet 20mg; Diclophen; Dicyclomine; Dicyclomine Cap 10mg; Dicyclomine Hydrochloride; Dicyclomine Hydrochloride Injection USP; Dicyclomine Hydrochloride USP; Dicyclomine hydrochloride; Formulex Cap 10mg; Jamp-dicyclomine HCl; Protylol Cap 10mg; Protylol Tab 20mg; Riva-dicyclomine; Spasmo Nil Tab; Viscerol Cap 10mg

>  <SALTS>  (1) 
Dicyclomine Hydrochloride

>  <SECONDARY_ACCESSION_NUMBERS>  (1) 
APRD00113

>  <SMILES>  (1) 
CCN(CC)CCOC(=O)C1(CCCCC1)C1CCCCC1

>  <SYNONYMS>  (1) 
Dicicloverina; Dicycloverin; Dicycloverine; Dicycloverinum

$$$$
