854
     RDKit          2D

 42 45  0  0  1  0  0  0  0  0999 V2000
    2.0103   -0.3755    0.0000 O   0  0  0  0  0  0  0  0  0  0  0  0
    4.9304    0.6944    0.0000 N   0  0  0  0  0  0  0  0  0  0  0  0
    4.8064   -0.3564    0.0000 C   0  0  0  0  0  0  0  0  0  0  0  0
    5.4924    0.0397    0.0000 C   0  0  0  0  0  0  0  0  0  0  0  0
    5.4924    0.8317    0.0000 C   0  0  0  0  0  0  0  0  0  0  0  0
    4.6456   -0.0634    0.0000 C   0  0  0  0  0  0  0  0  0  0  0  0
    4.7937   -1.1813    0.0000 C   0  0  0  0  0  0  0  0  0  0  0  0
    6.2132   -0.3618    0.0000 C   0  0  0  0  0  0  0  0  0  0  0  0
    4.1204    0.0397    0.0000 C   0  0  0  0  0  0  0  0  0  0  0  0
    4.8064    1.2278    0.0000 C   0  0  0  0  0  0  0  0  0  0  0  0
    4.5792    0.3878    0.0000 C   0  0  0  0  0  0  0  0  0  0  0  0
    5.5050   -1.5993    0.0000 C   0  0  0  0  0  0  0  0  0  0  0  0
    6.2195   -1.1868    0.0000 C   0  0  0  0  0  0  0  0  0  0  0  0
    4.1204    0.8317    0.0000 C   0  0  0  0  0  0  0  0  0  0  0  0
    3.4124   -0.3839    0.0000 C   0  0  0  0  0  0  0  0  0  0  0  0
    4.4930    1.1438    0.0000 C   0  0  0  0  0  0  0  0  0  0  0  0
    3.4124    1.2552    0.0000 C   0  0  0  0  0  0  0  0  0  0  0  0
    2.6947    0.0232    0.0000 C   0  0  0  0  0  0  0  0  0  0  0  0
    2.6947    0.8483    0.0000 C   0  0  0  0  0  0  0  0  0  0  0  0
    0.0000    0.0000    0.0000 H   0  0  0  0  0  0  0  0  0  0  0  0
    0.0000    0.0000    0.0000 H   0  0  0  0  0  0  0  0  0  0  0  0
    0.0000    0.0000    0.0000 H   0  0  0  0  0  0  0  0  0  0  0  0
    0.0000    0.0000    0.0000 H   0  0  0  0  0  0  0  0  0  0  0  0
    0.0000    0.0000    0.0000 H   0  0  0  0  0  0  0  0  0  0  0  0
    0.0000    0.0000    0.0000 H   0  0  0  0  0  0  0  0  0  0  0  0
    0.0000    0.0000    0.0000 H   0  0  0  0  0  0  0  0  0  0  0  0
    0.0000    0.0000    0.0000 H   0  0  0  0  0  0  0  0  0  0  0  0
    0.0000    0.0000    0.0000 H   0  0  0  0  0  0  0  0  0  0  0  0
    0.0000    0.0000    0.0000 H   0  0  0  0  0  0  0  0  0  0  0  0
    0.0000    0.0000    0.0000 H   0  0  0  0  0  0  0  0  0  0  0  0
    0.0000    0.0000    0.0000 H   0  0  0  0  0  0  0  0  0  0  0  0
    0.0000    0.0000    0.0000 H   0  0  0  0  0  0  0  0  0  0  0  0
    0.0000    0.0000    0.0000 H   0  0  0  0  0  0  0  0  0  0  0  0
    0.0000    0.0000    0.0000 H   0  0  0  0  0  0  0  0  0  0  0  0
    0.0000    0.0000    0.0000 H   0  0  0  0  0  0  0  0  0  0  0  0
    0.0000    0.0000    0.0000 H   0  0  0  0  0  0  0  0  0  0  0  0
    0.0000    0.0000    0.0000 H   0  0  0  0  0  0  0  0  0  0  0  0
    0.0000    0.0000    0.0000 H   0  0  0  0  0  0  0  0  0  0  0  0
    0.0000    0.0000    0.0000 H   0  0  0  0  0  0  0  0  0  0  0  0
    0.0000    0.0000    0.0000 H   0  0  0  0  0  0  0  0  0  0  0  0
    0.0000    0.0000    0.0000 H   0  0  0  0  0  0  0  0  0  0  0  0
    0.0000    0.0000    0.0000 H   0  0  0  0  0  0  0  0  0  0  0  0
  1 18  1  0
  5  2  1  0
  2 11  1  0
  2 16  1  0
  3  4  1  0
  3  6  1  1
  3  7  1  0
  3  9  1  0
  4  5  1  0
  4  8  1  0
  5 10  1  0
  6 11  1  0
  7 12  1  0
  8 13  1  0
  9 14  2  0
  9 15  1  0
 10 14  1  0
 12 13  1  0
 14 17  1  0
 15 18  2  0
 17 19  2  0
 18 19  1  0
  1 20  1  0
  4 21  1  1
  5 22  1  1
  6 23  1  0
  6 24  1  0
  7 25  1  0
  7 26  1  0
  8 27  1  0
  8 28  1  0
 10 29  1  0
 10 30  1  0
 11 31  1  0
 11 32  1  0
 12 33  1  0
 12 34  1  0
 13 35  1  0
 13 36  1  0
 15 37  1  0
 16 38  1  0
 16 39  1  0
 16 40  1  0
 17 41  1  0
 19 42  1  0
M  END
>  <ALOGPS_LOGP>  (1) 
3.29

>  <ALOGPS_LOGS>  (1) 
-3.17

>  <ALOGPS_SOLUBILITY>  (1) 
1.73e-01 g/l

>  <DATABASE_ID>  (1) 
DB00854

>  <DATABASE_NAME>  (1) 
drugbank

>  <DRUGBANK_ID>  (1) 
DB00854

>  <DRUG_GROUPS>  (1) 
approved

>  <EXACT_MASS>  (1) 
257.177964363

>  <FORMULA>  (1) 
C17H23NO

>  <GENERIC_NAME>  (1) 
Levorphanol

>  <INCHI_IDENTIFIER>  (1) 
InChI=1S/C17H23NO/c1-18-9-8-17-7-3-2-4-14(17)16(18)10-12-5-6-13(19)11-15(12)17/h5-6,11,14,16,19H,2-4,7-10H2,1H3/t14-,16+,17+/m0/s1

>  <INCHI_KEY>  (1) 
JAQUASYNZVUNQP-USXIJHARSA-N

>  <INTERNATIONAL_BRANDS>  (1) 
Levo-Dromoran

>  <JCHEM_ACCEPTOR_COUNT>  (1) 
2

>  <JCHEM_AVERAGE_POLARIZABILITY>  (1) 
29.835843009547546

>  <JCHEM_BIOAVAILABILITY>  (1) 
1

>  <JCHEM_DONOR_COUNT>  (1) 
1

>  <JCHEM_FORMAL_CHARGE>  (1) 
0

>  <JCHEM_GHOSE_FILTER>  (1) 
1

>  <JCHEM_IUPAC>  (1) 
(1R,9R,10R)-17-methyl-17-azatetracyclo[7.5.3.0¹,¹⁰.0²,⁷]heptadeca-2(7),3,5-trien-4-ol

>  <JCHEM_LOGP>  (1) 
2.903043791334286

>  <JCHEM_MDDR_LIKE_RULE>  (1) 
0

>  <JCHEM_NUMBER_OF_RINGS>  (1) 
4

>  <JCHEM_PHYSIOLOGICAL_CHARGE>  (1) 
1

>  <JCHEM_PKA_STRONGEST_ACIDIC>  (1) 
10.461597359118004

>  <JCHEM_PKA_STRONGEST_BASIC>  (1) 
9.65585507934564

>  <JCHEM_POLAR_SURFACE_AREA>  (1) 
23.47

>  <JCHEM_REFRACTIVITY>  (1) 
78.08090000000001

>  <JCHEM_ROTATABLE_BOND_COUNT>  (1) 
0

>  <JCHEM_RULE_OF_FIVE>  (1) 
1

>  <JCHEM_TRADITIONAL_IUPAC>  (1) 
levorphanol

>  <JCHEM_VEBER_RULE>  (1) 
1

>  <MOLECULAR_WEIGHT>  (1) 
257.3706

>  <PRODUCTS>  (1) 
Levorphanol Tartrate

>  <SALTS>  (1) 
Levorphanol tartrate

>  <SECONDARY_ACCESSION_NUMBERS>  (1) 
APRD00764

>  <SMILES>  (1) 
[H][C@@]12CCCC[C@@]11CCN(C)[C@@H]2CC2=C1C=C(O)C=C2

>  <SYNONYMS>  (1) 
Levorfanol; Lévorphanol; Levorphanol; Levorphanolum

$$$$
