724
     RDKit          2D

 34 36  0  0  0  0  0  0  0  0999 V2000
    3.2646    0.4156    0.0000 N   0  0  0  0  0  0  0  0  0  0  0  0
    3.2646   -0.9122    0.0000 N   0  0  0  0  0  0  0  0  0  0  0  0
    5.4742   -0.6608    0.0000 N   0  0  0  0  0  0  0  0  0  0  0  0
    4.7597   -1.8983    0.0000 N   0  0  0  0  0  0  0  0  0  0  0  0
    3.0082    1.1998    0.0000 C   0  0  0  0  0  0  0  0  0  0  0  0
    2.2010    1.3699    0.0000 C   0  0  0  0  0  0  0  0  0  0  0  0
    4.0452    0.1642    0.0000 C   0  0  0  0  0  0  0  0  0  0  0  0
    4.7597    0.5767    0.0000 C   0  0  0  0  0  0  0  0  0  0  0  0
    4.0452   -0.6608    0.0000 C   0  0  0  0  0  0  0  0  0  0  0  0
    2.7831   -0.2483    0.0000 C   0  0  0  0  0  0  0  0  0  0  0  0
    1.6500    0.7559    0.0000 C   0  0  0  0  0  0  0  0  0  0  0  0
    1.9447    2.1541    0.0000 C   0  0  0  0  0  0  0  0  0  0  0  0
    5.4742    0.1642    0.0000 C   0  0  0  0  0  0  0  0  0  0  0  0
    4.7597   -1.0733    0.0000 C   0  0  0  0  0  0  0  0  0  0  0  0
    4.7464    1.4359    0.0000 C   0  0  0  0  0  0  0  0  0  0  0  0
    6.2249    0.5823    0.0000 C   0  0  0  0  0  0  0  0  0  0  0  0
    5.4873    1.8714    0.0000 C   0  0  0  0  0  0  0  0  0  0  0  0
    6.2315    1.4416    0.0000 C   0  0  0  0  0  0  0  0  0  0  0  0
    0.0000    0.0000    0.0000 H   0  0  0  0  0  0  0  0  0  0  0  0
    0.0000    0.0000    0.0000 H   0  0  0  0  0  0  0  0  0  0  0  0
    0.0000    0.0000    0.0000 H   0  0  0  0  0  0  0  0  0  0  0  0
    0.0000    0.0000    0.0000 H   0  0  0  0  0  0  0  0  0  0  0  0
    0.0000    0.0000    0.0000 H   0  0  0  0  0  0  0  0  0  0  0  0
    0.0000    0.0000    0.0000 H   0  0  0  0  0  0  0  0  0  0  0  0
    0.0000    0.0000    0.0000 H   0  0  0  0  0  0  0  0  0  0  0  0
    0.0000    0.0000    0.0000 H   0  0  0  0  0  0  0  0  0  0  0  0
    0.0000    0.0000    0.0000 H   0  0  0  0  0  0  0  0  0  0  0  0
    0.0000    0.0000    0.0000 H   0  0  0  0  0  0  0  0  0  0  0  0
    0.0000    0.0000    0.0000 H   0  0  0  0  0  0  0  0  0  0  0  0
    0.0000    0.0000    0.0000 H   0  0  0  0  0  0  0  0  0  0  0  0
    0.0000    0.0000    0.0000 H   0  0  0  0  0  0  0  0  0  0  0  0
    0.0000    0.0000    0.0000 H   0  0  0  0  0  0  0  0  0  0  0  0
    0.0000    0.0000    0.0000 H   0  0  0  0  0  0  0  0  0  0  0  0
    0.0000    0.0000    0.0000 H   0  0  0  0  0  0  0  0  0  0  0  0
  1  5  1  0
  1  7  1  0
  1 10  1  0
  2  9  1  0
  2 10  2  0
  3 13  2  0
  3 14  1  0
  4 14  1  0
  5  6  1  0
  6 11  1  0
  6 12  1  0
  7  8  2  0
  7  9  1  0
  8 13  1  0
  8 15  1  0
  9 14  2  0
 13 16  1  0
 15 17  2  0
 16 18  2  0
 17 18  1  0
  4 19  1  0
  4 20  1  0
  5 21  1  0
  5 22  1  0
  6 23  1  0
 10 24  1  0
 11 25  1  0
 11 26  1  0
 11 27  1  0
 12 28  1  0
 12 29  1  0
 12 30  1  0
 15 31  1  0
 16 32  1  0
 17 33  1  0
 18 34  1  0
M  END
>  <ALOGPS_LOGP>  (1) 
2.83

>  <ALOGPS_LOGS>  (1) 
-2.99

>  <ALOGPS_SOLUBILITY>  (1) 
2.47e-01 g/l

>  <DATABASE_ID>  (1) 
DB00724

>  <DATABASE_NAME>  (1) 
drugbank

>  <DRUGBANK_ID>  (1) 
DB00724

>  <DRUG_GROUPS>  (1) 
approved; investigational

>  <EXACT_MASS>  (1) 
240.137496532

>  <FORMULA>  (1) 
C14H16N4

>  <GENERIC_NAME>  (1) 
Imiquimod

>  <INCHI_IDENTIFIER>  (1) 
InChI=1S/C14H16N4/c1-9(2)7-18-8-16-12-13(18)10-5-3-4-6-11(10)17-14(12)15/h3-6,8-9H,7H2,1-2H3,(H2,15,17)

>  <INCHI_KEY>  (1) 
DOUYETYNHWVLEO-UHFFFAOYSA-N

>  <INTERNATIONAL_BRANDS>  (1) 
Beselna; Imimore; Imiquad; Labimiq; Li Di; Miquimod; Nan Bo; Nilwart; Omiquidar; Tian Rui; Vetland; You Care; Youbiqing

>  <JCHEM_ACCEPTOR_COUNT>  (1) 
3

>  <JCHEM_AVERAGE_POLARIZABILITY>  (1) 
26.667390856253917

>  <JCHEM_BIOAVAILABILITY>  (1) 
1

>  <JCHEM_DONOR_COUNT>  (1) 
1

>  <JCHEM_FORMAL_CHARGE>  (1) 
0

>  <JCHEM_GHOSE_FILTER>  (1) 
1

>  <JCHEM_IUPAC>  (1) 
1-(2-methylpropyl)-1H-imidazo[4,5-c]quinolin-4-amine

>  <JCHEM_LOGP>  (1) 
2.6506694719999997

>  <JCHEM_MDDR_LIKE_RULE>  (1) 
0

>  <JCHEM_NUMBER_OF_RINGS>  (1) 
3

>  <JCHEM_PHYSIOLOGICAL_CHARGE>  (1) 
0

>  <JCHEM_PKA_STRONGEST_BASIC>  (1) 
5.397918887205608

>  <JCHEM_POLAR_SURFACE_AREA>  (1) 
56.730000000000004

>  <JCHEM_REFRACTIVITY>  (1) 
72.5446

>  <JCHEM_ROTATABLE_BOND_COUNT>  (1) 
2

>  <JCHEM_RULE_OF_FIVE>  (1) 
1

>  <JCHEM_TRADITIONAL_IUPAC>  (1) 
imiquimod

>  <JCHEM_VEBER_RULE>  (1) 
0

>  <MOLECULAR_WEIGHT>  (1) 
240.3036

>  <PRODUCTS>  (1) 
Aldara; Aldara P; Apo-imiquimod; Imiquimod; Imiquimod 5%; Vyloma; Zyclara

>  <SALTS>  (1) 
Imiquimod acetate

>  <SECONDARY_ACCESSION_NUMBERS>  (1) 
APRD01030

>  <SMILES>  (1) 
CC(C)CN1C=NC2=C1C1=CC=CC=C1N=C2N

>  <SYNONYMS>  (1) 
Imiquimod; Imiquimodum; Zartra

$$$$
