992
     RDKit          2D

 21 20  0  0  0  0  0  0  0  0999 V2000
    6.3793   -0.2063    0.0000 O   0  0  0  0  0  0  0  0  0  0  0  0
    3.5217   -1.0312    0.0000 O   0  0  0  0  0  0  0  0  0  0  0  0
    5.6650    1.0312    0.0000 O   0  0  0  0  0  0  0  0  0  0  0  0
    2.0928   -0.2063    0.0000 N   0  0  0  0  0  0  0  0  0  0  0  0
    4.2361    0.2063    0.0000 C   0  0  0  0  0  0  0  0  0  0  0  0
    4.9504   -0.2063    0.0000 C   0  0  0  0  0  0  0  0  0  0  0  0
    3.5217   -0.2063    0.0000 C   0  0  0  0  0  0  0  0  0  0  0  0
    2.8072    0.2063    0.0000 C   0  0  0  0  0  0  0  0  0  0  0  0
    5.6650    0.2063    0.0000 C   0  0  0  0  0  0  0  0  0  0  0  0
    7.0938    0.2063    0.0000 C   0  0  0  0  0  0  0  0  0  0  0  0
    0.0000    0.0000    0.0000 H   0  0  0  0  0  0  0  0  0  0  0  0
    0.0000    0.0000    0.0000 H   0  0  0  0  0  0  0  0  0  0  0  0
    0.0000    0.0000    0.0000 H   0  0  0  0  0  0  0  0  0  0  0  0
    0.0000    0.0000    0.0000 H   0  0  0  0  0  0  0  0  0  0  0  0
    0.0000    0.0000    0.0000 H   0  0  0  0  0  0  0  0  0  0  0  0
    0.0000    0.0000    0.0000 H   0  0  0  0  0  0  0  0  0  0  0  0
    0.0000    0.0000    0.0000 H   0  0  0  0  0  0  0  0  0  0  0  0
    0.0000    0.0000    0.0000 H   0  0  0  0  0  0  0  0  0  0  0  0
    0.0000    0.0000    0.0000 H   0  0  0  0  0  0  0  0  0  0  0  0
    0.0000    0.0000    0.0000 H   0  0  0  0  0  0  0  0  0  0  0  0
    0.0000    0.0000    0.0000 H   0  0  0  0  0  0  0  0  0  0  0  0
  1  9  1  0
  1 10  1  0
  2  7  2  0
  3  9  2  0
  4  8  1  0
  5  6  1  0
  5  7  1  0
  6  9  1  0
  7  8  1  0
  4 11  1  0
  4 12  1  0
  5 13  1  0
  5 14  1  0
  6 15  1  0
  6 16  1  0
  8 17  1  0
  8 18  1  0
 10 19  1  0
 10 20  1  0
 10 21  1  0
M  END
>  <ALOGPS_LOGP>  (1) 
-1.30

>  <ALOGPS_LOGS>  (1) 
0.18

>  <ALOGPS_SOLUBILITY>  (1) 
2.20e+02 g/l

>  <DATABASE_ID>  (1) 
DB00992

>  <DATABASE_NAME>  (1) 
drugbank

>  <DRUGBANK_ID>  (1) 
DB00992

>  <DRUG_GROUPS>  (1) 
approved

>  <EXACT_MASS>  (1) 
145.073893223

>  <FORMULA>  (1) 
C6H11NO3

>  <GENERIC_NAME>  (1) 
Methyl aminolevulinate

>  <INCHI_IDENTIFIER>  (1) 
InChI=1S/C6H11NO3/c1-10-6(9)3-2-5(8)4-7/h2-4,7H2,1H3

>  <INCHI_KEY>  (1) 
YUUAYBAIHCDHHD-UHFFFAOYSA-N

>  <JCHEM_ACCEPTOR_COUNT>  (1) 
3

>  <JCHEM_AVERAGE_POLARIZABILITY>  (1) 
14.546989368709982

>  <JCHEM_BIOAVAILABILITY>  (1) 
1

>  <JCHEM_DONOR_COUNT>  (1) 
1

>  <JCHEM_FORMAL_CHARGE>  (1) 
0

>  <JCHEM_GHOSE_FILTER>  (1) 
0

>  <JCHEM_IUPAC>  (1) 
methyl 5-amino-4-oxopentanoate

>  <JCHEM_LOGP>  (1) 
-0.8470932313333333

>  <JCHEM_MDDR_LIKE_RULE>  (1) 
0

>  <JCHEM_NUMBER_OF_RINGS>  (1) 
0

>  <JCHEM_PHYSIOLOGICAL_CHARGE>  (1) 
1

>  <JCHEM_PKA_STRONGEST_ACIDIC>  (1) 
16.117232721001145

>  <JCHEM_PKA_STRONGEST_BASIC>  (1) 
7.83413391353094

>  <JCHEM_POLAR_SURFACE_AREA>  (1) 
69.39

>  <JCHEM_REFRACTIVITY>  (1) 
35.216899999999995

>  <JCHEM_ROTATABLE_BOND_COUNT>  (1) 
5

>  <JCHEM_RULE_OF_FIVE>  (1) 
1

>  <JCHEM_TRADITIONAL_IUPAC>  (1) 
methyl aminolevulinate

>  <JCHEM_VEBER_RULE>  (1) 
0

>  <MOLECULAR_WEIGHT>  (1) 
145.1564

>  <PRODUCTS>  (1) 
Metvix

>  <SALTS>  (1) 
Methyl aminolevulinate hydrochloride

>  <SECONDARY_ACCESSION_NUMBERS>  (1) 
APRD01105

>  <SMILES>  (1) 
COC(=O)CCC(=O)CN

>  <SYNONYMS>  (1) 
5-Aminolevulinic acid methyl ester; Aminolevulinic acid methyl ester

$$$$
