913
     RDKit          2D

 54 56  0  0  0  0  0  0  0  0999 V2000
    2.8876    2.9996    0.0000 O   0  0  0  0  0  0  0  0  0  0  0  0
    3.8558    3.8121    0.0000 O   0  0  0  0  0  0  0  0  0  0  0  0
    4.1251    0.6351    0.0000 N   0  0  0  0  0  0  0  0  0  0  0  0
    3.4106   -3.9025    0.0000 N   0  0  0  0  0  0  0  0  0  0  0  0
    4.1251    2.2851    0.0000 C   0  0  0  0  0  0  0  0  0  0  0  0
    3.4106    1.8726    0.0000 C   0  0  0  0  0  0  0  0  0  0  0  0
    4.8396    1.8726    0.0000 C   0  0  0  0  0  0  0  0  0  0  0  0
    3.4106    1.0476    0.0000 C   0  0  0  0  0  0  0  0  0  0  0  0
    4.8396    1.0476    0.0000 C   0  0  0  0  0  0  0  0  0  0  0  0
    4.7571    2.8155    0.0000 C   0  0  0  0  0  0  0  0  0  0  0  0
    4.1251   -0.1899    0.0000 C   0  0  0  0  0  0  0  0  0  0  0  0
    3.7126    2.9996    0.0000 C   0  0  0  0  0  0  0  0  0  0  0  0
    3.4106   -0.6024    0.0000 C   0  0  0  0  0  0  0  0  0  0  0  0
    4.6138    3.6279    0.0000 C   0  0  0  0  0  0  0  0  0  0  0  0
    5.5323    2.5333    0.0000 C   0  0  0  0  0  0  0  0  0  0  0  0
    3.4106   -1.4274    0.0000 C   0  0  0  0  0  0  0  0  0  0  0  0
    5.2458    4.1583    0.0000 C   0  0  0  0  0  0  0  0  0  0  0  0
    6.1644    3.0636    0.0000 C   0  0  0  0  0  0  0  0  0  0  0  0
    6.0211    3.8761    0.0000 C   0  0  0  0  0  0  0  0  0  0  0  0
    2.4751    3.7141    0.0000 C   0  0  0  0  0  0  0  0  0  0  0  0
    4.1251   -1.8400    0.0000 C   0  0  0  0  0  0  0  0  0  0  0  0
    2.6961   -1.8400    0.0000 C   0  0  0  0  0  0  0  0  0  0  0  0
    1.6500    3.7141    0.0000 C   0  0  0  0  0  0  0  0  0  0  0  0
    4.1251   -2.6650    0.0000 C   0  0  0  0  0  0  0  0  0  0  0  0
    2.6961   -2.6650    0.0000 C   0  0  0  0  0  0  0  0  0  0  0  0
    3.4106   -3.0775    0.0000 C   0  0  0  0  0  0  0  0  0  0  0  0
    0.0000    0.0000    0.0000 H   0  0  0  0  0  0  0  0  0  0  0  0
    0.0000    0.0000    0.0000 H   0  0  0  0  0  0  0  0  0  0  0  0
    0.0000    0.0000    0.0000 H   0  0  0  0  0  0  0  0  0  0  0  0
    0.0000    0.0000    0.0000 H   0  0  0  0  0  0  0  0  0  0  0  0
    0.0000    0.0000    0.0000 H   0  0  0  0  0  0  0  0  0  0  0  0
    0.0000    0.0000    0.0000 H   0  0  0  0  0  0  0  0  0  0  0  0
    0.0000    0.0000    0.0000 H   0  0  0  0  0  0  0  0  0  0  0  0
    0.0000    0.0000    0.0000 H   0  0  0  0  0  0  0  0  0  0  0  0
    0.0000    0.0000    0.0000 H   0  0  0  0  0  0  0  0  0  0  0  0
    0.0000    0.0000    0.0000 H   0  0  0  0  0  0  0  0  0  0  0  0
    0.0000    0.0000    0.0000 H   0  0  0  0  0  0  0  0  0  0  0  0
    0.0000    0.0000    0.0000 H   0  0  0  0  0  0  0  0  0  0  0  0
    0.0000    0.0000    0.0000 H   0  0  0  0  0  0  0  0  0  0  0  0
    0.0000    0.0000    0.0000 H   0  0  0  0  0  0  0  0  0  0  0  0
    0.0000    0.0000    0.0000 H   0  0  0  0  0  0  0  0  0  0  0  0
    0.0000    0.0000    0.0000 H   0  0  0  0  0  0  0  0  0  0  0  0
    0.0000    0.0000    0.0000 H   0  0  0  0  0  0  0  0  0  0  0  0
    0.0000    0.0000    0.0000 H   0  0  0  0  0  0  0  0  0  0  0  0
    0.0000    0.0000    0.0000 H   0  0  0  0  0  0  0  0  0  0  0  0
    0.0000    0.0000    0.0000 H   0  0  0  0  0  0  0  0  0  0  0  0
    0.0000    0.0000    0.0000 H   0  0  0  0  0  0  0  0  0  0  0  0
    0.0000    0.0000    0.0000 H   0  0  0  0  0  0  0  0  0  0  0  0
    0.0000    0.0000    0.0000 H   0  0  0  0  0  0  0  0  0  0  0  0
    0.0000    0.0000    0.0000 H   0  0  0  0  0  0  0  0  0  0  0  0
    0.0000    0.0000    0.0000 H   0  0  0  0  0  0  0  0  0  0  0  0
    0.0000    0.0000    0.0000 H   0  0  0  0  0  0  0  0  0  0  0  0
    0.0000    0.0000    0.0000 H   0  0  0  0  0  0  0  0  0  0  0  0
    0.0000    0.0000    0.0000 H   0  0  0  0  0  0  0  0  0  0  0  0
  1 12  1  0
  1 20  1  0
  2 12  2  0
  3  8  1  0
  3  9  1  0
  3 11  1  0
  4 26  1  0
  5  6  1  0
  5  7  1  0
  5 10  1  0
  5 12  1  0
  6  8  1  0
  7  9  1  0
 10 14  2  0
 10 15  1  0
 11 13  1  0
 13 16  1  0
 14 17  1  0
 15 18  2  0
 16 21  2  0
 16 22  1  0
 17 19  2  0
 18 19  1  0
 20 23  1  0
 21 24  1  0
 22 25  2  0
 24 26  2  0
 25 26  1  0
  4 27  1  0
  4 28  1  0
  6 29  1  0
  6 30  1  0
  7 31  1  0
  7 32  1  0
  8 33  1  0
  8 34  1  0
  9 35  1  0
  9 36  1  0
 11 37  1  0
 11 38  1  0
 13 39  1  0
 13 40  1  0
 14 41  1  0
 15 42  1  0
 17 43  1  0
 18 44  1  0
 19 45  1  0
 20 46  1  0
 20 47  1  0
 21 48  1  0
 22 49  1  0
 23 50  1  0
 23 51  1  0
 23 52  1  0
 24 53  1  0
 25 54  1  0
M  END
>  <ALOGPS_LOGP>  (1) 
4.05

>  <ALOGPS_LOGS>  (1) 
-4.46

>  <ALOGPS_SOLUBILITY>  (1) 
1.24e-02 g/l

>  <DATABASE_ID>  (1) 
DB00913

>  <DATABASE_NAME>  (1) 
drugbank

>  <DRUGBANK_ID>  (1) 
DB00913

>  <DRUG_GROUPS>  (1) 
approved; illicit

>  <EXACT_MASS>  (1) 
352.21507815

>  <FORMULA>  (1) 
C22H28N2O2

>  <GENERIC_NAME>  (1) 
Anileridine

>  <INCHI_IDENTIFIER>  (1) 
InChI=1S/C22H28N2O2/c1-2-26-21(25)22(19-6-4-3-5-7-19)13-16-24(17-14-22)15-12-18-8-10-20(23)11-9-18/h3-11H,2,12-17,23H2,1H3

>  <INCHI_KEY>  (1) 
LKYQLAWMNBFNJT-UHFFFAOYSA-N

>  <INTERNATIONAL_BRANDS>  (1) 
Apodol; Leritine

>  <JCHEM_ACCEPTOR_COUNT>  (1) 
3

>  <JCHEM_AVERAGE_POLARIZABILITY>  (1) 
40.9821993709223

>  <JCHEM_BIOAVAILABILITY>  (1) 
1

>  <JCHEM_DONOR_COUNT>  (1) 
1

>  <JCHEM_FORMAL_CHARGE>  (1) 
0

>  <JCHEM_GHOSE_FILTER>  (1) 
1

>  <JCHEM_IUPAC>  (1) 
ethyl 1-[2-(4-aminophenyl)ethyl]-4-phenylpiperidine-4-carboxylate

>  <JCHEM_LOGP>  (1) 
3.6400087643333334

>  <JCHEM_MDDR_LIKE_RULE>  (1) 
1

>  <JCHEM_NUMBER_OF_RINGS>  (1) 
3

>  <JCHEM_PHYSIOLOGICAL_CHARGE>  (1) 
1

>  <JCHEM_PKA_STRONGEST_BASIC>  (1) 
8.877914258147797

>  <JCHEM_POLAR_SURFACE_AREA>  (1) 
55.56

>  <JCHEM_REFRACTIVITY>  (1) 
106.55170000000001

>  <JCHEM_ROTATABLE_BOND_COUNT>  (1) 
7

>  <JCHEM_RULE_OF_FIVE>  (1) 
1

>  <JCHEM_TRADITIONAL_IUPAC>  (1) 
anileridine

>  <JCHEM_VEBER_RULE>  (1) 
0

>  <MOLECULAR_WEIGHT>  (1) 
352.4699

>  <PRODUCTS>  (1) 
Leritine Inj 25mg/ml; Leritine Tablets 25mg

>  <SALTS>  (1) 
Anileridine hydrochloride; Anileridine phosphate

>  <SECONDARY_ACCESSION_NUMBERS>  (1) 
APRD00741

>  <SMILES>  (1) 
CCOC(=O)C1(CCN(CCC2=CC=C(N)C=C2)CC1)C1=CC=CC=C1

>  <SYNONYMS>  (1) 
Anileridina; Anileridinum; ethyl 1-(4-aminophenethyl)-4-phenylisonipecotate; N-Î²-(p-aminophenyl)ethylnormeperidine

$$$$
