834
     RDKit          2D

 67 71  0  0  1  0  0  0  0  0999 V2000
    7.1785    1.0770    0.0000 O   0  0  0  0  0  0  0  0  0  0  0  0
    2.2020   -2.4777    0.0000 O   0  0  0  0  0  0  0  0  0  0  0  0
    2.3645    1.6905    0.0000 N   0  0  0  0  0  0  0  0  0  0  0  0
    6.6514    0.0405    0.0000 C   0  0  0  0  0  0  0  0  0  0  0  0
    6.6514   -0.7845    0.0000 C   0  0  0  0  0  0  0  0  0  0  0  0
    5.9370   -1.1970    0.0000 C   0  0  0  0  0  0  0  0  0  0  0  0
    7.4321    0.2919    0.0000 C   0  0  0  0  0  0  0  0  0  0  0  0
    5.9370    0.4530    0.0000 C   0  0  0  0  0  0  0  0  0  0  0  0
    7.4321   -1.0359    0.0000 C   0  0  0  0  0  0  0  0  0  0  0  0
    7.9135   -0.3720    0.0000 C   0  0  0  0  0  0  0  0  0  0  0  0
    5.2224    0.0405    0.0000 C   0  0  0  0  0  0  0  0  0  0  0  0
    5.2224   -0.7845    0.0000 C   0  0  0  0  0  0  0  0  0  0  0  0
    5.9502   -2.0563    0.0000 C   0  0  0  0  0  0  0  0  0  0  0  0
    6.6514    0.8655    0.0000 C   0  0  0  0  0  0  0  0  0  0  0  0
    4.4717   -1.2027    0.0000 C   0  0  0  0  0  0  0  0  0  0  0  0
    5.2093   -2.4917    0.0000 C   0  0  0  0  0  0  0  0  0  0  0  0
    4.5080    0.4530    0.0000 C   0  0  0  0  0  0  0  0  0  0  0  0
    4.4651   -2.0620    0.0000 C   0  0  0  0  0  0  0  0  0  0  0  0
    8.1003    0.7757    0.0000 C   0  0  0  0  0  0  0  0  0  0  0  0
    3.7070   -0.7373    0.0000 C   0  0  0  0  0  0  0  0  0  0  0  0
    3.6933   -2.5156    0.0000 C   0  0  0  0  0  0  0  0  0  0  0  0
    2.9250   -1.1728    0.0000 C   0  0  0  0  0  0  0  0  0  0  0  0
    3.7935    0.0405    0.0000 C   0  0  0  0  0  0  0  0  0  0  0  0
    4.5080    1.2780    0.0000 C   0  0  0  0  0  0  0  0  0  0  0  0
    2.9181   -2.0680    0.0000 C   0  0  0  0  0  0  0  0  0  0  0  0
    8.7687    1.2595    0.0000 C   0  0  0  0  0  0  0  0  0  0  0  0
    3.0790    0.4530    0.0000 C   0  0  0  0  0  0  0  0  0  0  0  0
    3.7935    1.6905    0.0000 C   0  0  0  0  0  0  0  0  0  0  0  0
    3.0790    1.2780    0.0000 C   0  0  0  0  0  0  0  0  0  0  0  0
    9.4369    1.7433    0.0000 C   0  0  0  0  0  0  0  0  0  0  0  0
    2.3645    2.5156    0.0000 C   0  0  0  0  0  0  0  0  0  0  0  0
    1.6500    1.2780    0.0000 C   0  0  0  0  0  0  0  0  0  0  0  0
    0.0000    0.0000    0.0000 H   0  0  0  0  0  0  0  0  0  0  0  0
    0.0000    0.0000    0.0000 H   0  0  0  0  0  0  0  0  0  0  0  0
    0.0000    0.0000    0.0000 H   0  0  0  0  0  0  0  0  0  0  0  0
    0.0000    0.0000    0.0000 H   0  0  0  0  0  0  0  0  0  0  0  0
    0.0000    0.0000    0.0000 H   0  0  0  0  0  0  0  0  0  0  0  0
    0.0000    0.0000    0.0000 H   0  0  0  0  0  0  0  0  0  0  0  0
    0.0000    0.0000    0.0000 H   0  0  0  0  0  0  0  0  0  0  0  0
    0.0000    0.0000    0.0000 H   0  0  0  0  0  0  0  0  0  0  0  0
    0.0000    0.0000    0.0000 H   0  0  0  0  0  0  0  0  0  0  0  0
    0.0000    0.0000    0.0000 H   0  0  0  0  0  0  0  0  0  0  0  0
    0.0000    0.0000    0.0000 H   0  0  0  0  0  0  0  0  0  0  0  0
    0.0000    0.0000    0.0000 H   0  0  0  0  0  0  0  0  0  0  0  0
    0.0000    0.0000    0.0000 H   0  0  0  0  0  0  0  0  0  0  0  0
    0.0000    0.0000    0.0000 H   0  0  0  0  0  0  0  0  0  0  0  0
    0.0000    0.0000    0.0000 H   0  0  0  0  0  0  0  0  0  0  0  0
    0.0000    0.0000    0.0000 H   0  0  0  0  0  0  0  0  0  0  0  0
    0.0000    0.0000    0.0000 H   0  0  0  0  0  0  0  0  0  0  0  0
    0.0000    0.0000    0.0000 H   0  0  0  0  0  0  0  0  0  0  0  0
    0.0000    0.0000    0.0000 H   0  0  0  0  0  0  0  0  0  0  0  0
    0.0000    0.0000    0.0000 H   0  0  0  0  0  0  0  0  0  0  0  0
    0.0000    0.0000    0.0000 H   0  0  0  0  0  0  0  0  0  0  0  0
    0.0000    0.0000    0.0000 H   0  0  0  0  0  0  0  0  0  0  0  0
    0.0000    0.0000    0.0000 H   0  0  0  0  0  0  0  0  0  0  0  0
    0.0000    0.0000    0.0000 H   0  0  0  0  0  0  0  0  0  0  0  0
    0.0000    0.0000    0.0000 H   0  0  0  0  0  0  0  0  0  0  0  0
    0.0000    0.0000    0.0000 H   0  0  0  0  0  0  0  0  0  0  0  0
    0.0000    0.0000    0.0000 H   0  0  0  0  0  0  0  0  0  0  0  0
    0.0000    0.0000    0.0000 H   0  0  0  0  0  0  0  0  0  0  0  0
    0.0000    0.0000    0.0000 H   0  0  0  0  0  0  0  0  0  0  0  0
    0.0000    0.0000    0.0000 H   0  0  0  0  0  0  0  0  0  0  0  0
    0.0000    0.0000    0.0000 H   0  0  0  0  0  0  0  0  0  0  0  0
    0.0000    0.0000    0.0000 H   0  0  0  0  0  0  0  0  0  0  0  0
    0.0000    0.0000    0.0000 H   0  0  0  0  0  0  0  0  0  0  0  0
    0.0000    0.0000    0.0000 H   0  0  0  0  0  0  0  0  0  0  0  0
    0.0000    0.0000    0.0000 H   0  0  0  0  0  0  0  0  0  0  0  0
  7  1  1  1
  2 25  2  0
  3 29  1  0
  3 31  1  0
  3 32  1  0
  4  5  1  0
  4  7  1  0
  4  8  1  0
  4 14  1  1
  5  6  1  0
  5  9  1  0
  6 12  1  0
  6 13  1  0
  7 10  1  0
  7 19  1  0
  8 11  1  0
  9 10  1  0
 11 12  1  0
 11 17  1  1
 12 15  2  0
 13 16  1  0
 15 18  1  0
 15 20  1  0
 16 18  1  0
 17 23  2  0
 17 24  1  0
 18 21  2  0
 19 26  3  0
 20 22  1  0
 21 25  1  0
 22 25  1  0
 23 27  1  0
 24 28  2  0
 26 30  1  0
 27 29  2  0
 28 29  1  0
  1 33  1  0
  5 34  1  6
  6 35  1  1
  8 36  1  0
  8 37  1  0
  9 38  1  0
  9 39  1  0
 10 40  1  0
 10 41  1  0
 11 42  1  0
 13 43  1  0
 13 44  1  0
 14 45  1  0
 14 46  1  0
 14 47  1  0
 16 48  1  0
 16 49  1  0
 20 50  1  0
 20 51  1  0
 21 52  1  0
 22 53  1  0
 22 54  1  0
 23 55  1  0
 24 56  1  0
 27 57  1  0
 28 58  1  0
 30 59  1  0
 30 60  1  0
 30 61  1  0
 31 62  1  0
 31 63  1  0
 31 64  1  0
 32 65  1  0
 32 66  1  0
 32 67  1  0
M  END
>  <ALOGPS_LOGP>  (1) 
5.33

>  <ALOGPS_LOGS>  (1) 
-5.11

>  <ALOGPS_SOLUBILITY>  (1) 
3.36e-03 g/l

>  <DATABASE_ID>  (1) 
DB00834

>  <DATABASE_NAME>  (1) 
drugbank

>  <DRUGBANK_ID>  (1) 
DB00834

>  <DRUG_GROUPS>  (1) 
approved; investigational

>  <EXACT_MASS>  (1) 
429.266779369

>  <FORMULA>  (1) 
C29H35NO2

>  <GENERIC_NAME>  (1) 
Mifepristone

>  <INCHI_IDENTIFIER>  (1) 
InChI=1S/C29H35NO2/c1-5-15-29(32)16-14-26-24-12-8-20-17-22(31)11-13-23(20)27(24)25(18-28(26,29)2)19-6-9-21(10-7-19)30(3)4/h6-7,9-10,17,24-26,32H,8,11-14,16,18H2,1-4H3/t24-,25+,26-,28-,29-/m0/s1

>  <INCHI_KEY>  (1) 
VKHAHZOOUSRJNA-GCNJZUOMSA-N

>  <INTERNATIONAL_BRANDS>  (1) 
Corlux; Mefipil; Mifegyne; Mifeprex

>  <JCHEM_ACCEPTOR_COUNT>  (1) 
3

>  <JCHEM_AVERAGE_POLARIZABILITY>  (1) 
50.70823896359645

>  <JCHEM_BIOAVAILABILITY>  (1) 
1

>  <JCHEM_DONOR_COUNT>  (1) 
1

>  <JCHEM_FORMAL_CHARGE>  (1) 
0

>  <JCHEM_GHOSE_FILTER>  (1) 
0

>  <JCHEM_IUPAC>  (1) 
(10S,11S,14S,15S,17R)-17-[4-(dimethylamino)phenyl]-14-hydroxy-15-methyl-14-(prop-1-yn-1-yl)tetracyclo[8.7.0.0²,⁷.0¹¹,¹⁵]heptadeca-1,6-dien-5-one

>  <JCHEM_LOGP>  (1) 
5.133287652333334

>  <JCHEM_MDDR_LIKE_RULE>  (1) 
0

>  <JCHEM_NUMBER_OF_RINGS>  (1) 
5

>  <JCHEM_PHYSIOLOGICAL_CHARGE>  (1) 
0

>  <JCHEM_PKA>  (1) 
19.026453111194126

>  <JCHEM_PKA_STRONGEST_ACIDIC>  (1) 
12.865694260449281

>  <JCHEM_PKA_STRONGEST_BASIC>  (1) 
4.8896310300256856

>  <JCHEM_POLAR_SURFACE_AREA>  (1) 
40.54

>  <JCHEM_REFRACTIVITY>  (1) 
132.58089999999999

>  <JCHEM_ROTATABLE_BOND_COUNT>  (1) 
3

>  <JCHEM_RULE_OF_FIVE>  (1) 
0

>  <JCHEM_TRADITIONAL_IUPAC>  (1) 
mifepristone

>  <JCHEM_VEBER_RULE>  (1) 
0

>  <MOLECULAR_WEIGHT>  (1) 
429.5937

>  <PRODUCTS>  (1) 
Korlym; Mifegymiso

>  <SECONDARY_ACCESSION_NUMBERS>  (1) 
APRD00432

>  <SMILES>  (1) 
[H][C@@]12CC[C@@](O)(C#CC)[C@@]1(C)C[C@H](C1=CC=C(C=C1)N(C)C)C1=C3CCC(=O)C=C3CC[C@@]21[H]

>  <SYNONYMS>  (1) 
Mifepriston; Mifepristona; Mifépristone; Mifepristonum

$$$$
