60714
     RDKit          2D

 58 57  0  0  1  0  0  0  0  0999 V2000
    1.6500    2.7688    0.0000 Gd  0  0  0  0  0  0  0  0  0  0  0  0
    7.6004    2.6789    0.0000 O   0  0  0  0  0  0  0  0  0  0  0  0
    2.4680    2.6610    0.0000 O   0  0  0  0  0  0  0  0  0  0  0  0
    6.7833   -3.1904    0.0000 O   0  0  0  0  0  0  0  0  0  0  0  0
    2.2815    1.2443    0.0000 O   0  0  0  0  0  0  0  0  0  0  0  0
    5.4631   -2.6436    0.0000 O   0  0  0  0  0  0  0  0  0  0  0  0
    2.6934   -2.7702    0.0000 O   0  0  0  0  0  0  0  0  0  0  0  0
    2.3236   -1.3899    0.0000 O   0  0  0  0  0  0  0  0  0  0  0  0
    6.1714    1.0289    0.0000 N   0  0  0  0  0  0  0  0  0  0  0  0
    6.0946   -1.1192    0.0000 N   0  0  0  0  0  0  0  0  0  0  0  0
    3.9174    1.0289    0.0000 N   0  0  0  0  0  0  0  0  0  0  0  0
    3.9174   -0.9629    0.0000 N   0  0  0  0  0  0  0  0  0  0  0  0
    5.4569    1.4414    0.0000 C   0  0  0  0  0  0  0  0  0  0  0  0
    6.1714    0.2039    0.0000 C   0  0  0  0  0  0  0  0  0  0  0  0
    6.5071   -0.4047    0.0000 C   0  0  0  0  0  0  0  0  0  0  0  0
    4.7425    1.0289    0.0000 C   0  0  0  0  0  0  0  0  0  0  0  0
    5.2977   -1.3327    0.0000 C   0  0  0  0  0  0  0  0  0  0  0  0
    3.3341    0.4455    0.0000 C   0  0  0  0  0  0  0  0  0  0  0  0
    4.7143   -0.7494    0.0000 C   0  0  0  0  0  0  0  0  0  0  0  0
    3.3341   -0.3795    0.0000 C   0  0  0  0  0  0  0  0  0  0  0  0
    6.8858    1.4414    0.0000 C   0  0  0  0  0  0  0  0  0  0  0  0
    6.8858    2.2664    0.0000 C   0  0  0  0  0  0  0  0  0  0  0  0
    6.5968   -1.7737    0.0000 C   0  0  0  0  0  0  0  0  0  0  0  0
    3.6017    1.7911    0.0000 C   0  0  0  0  0  0  0  0  0  0  0  0
    3.7038   -1.7598    0.0000 C   0  0  0  0  0  0  0  0  0  0  0  0
    6.1714    2.6789    0.0000 C   0  0  0  0  0  0  0  0  0  0  0  0
    2.7837    1.8988    0.0000 C   0  0  0  0  0  0  0  0  0  0  0  0
    6.2811   -2.5359    0.0000 C   0  0  0  0  0  0  0  0  0  0  0  0
    2.9070   -1.9733    0.0000 C   0  0  0  0  0  0  0  0  0  0  0  0
    0.0000    0.0000    0.0000 H   0  0  0  0  0  0  0  0  0  0  0  0
    0.0000    0.0000    0.0000 H   0  0  0  0  0  0  0  0  0  0  0  0
    0.0000    0.0000    0.0000 H   0  0  0  0  0  0  0  0  0  0  0  0
    0.0000    0.0000    0.0000 H   0  0  0  0  0  0  0  0  0  0  0  0
    0.0000    0.0000    0.0000 H   0  0  0  0  0  0  0  0  0  0  0  0
    0.0000    0.0000    0.0000 H   0  0  0  0  0  0  0  0  0  0  0  0
    0.0000    0.0000    0.0000 H   0  0  0  0  0  0  0  0  0  0  0  0
    0.0000    0.0000    0.0000 H   0  0  0  0  0  0  0  0  0  0  0  0
    0.0000    0.0000    0.0000 H   0  0  0  0  0  0  0  0  0  0  0  0
    0.0000    0.0000    0.0000 H   0  0  0  0  0  0  0  0  0  0  0  0
    0.0000    0.0000    0.0000 H   0  0  0  0  0  0  0  0  0  0  0  0
    0.0000    0.0000    0.0000 H   0  0  0  0  0  0  0  0  0  0  0  0
    0.0000    0.0000    0.0000 H   0  0  0  0  0  0  0  0  0  0  0  0
    0.0000    0.0000    0.0000 H   0  0  0  0  0  0  0  0  0  0  0  0
    0.0000    0.0000    0.0000 H   0  0  0  0  0  0  0  0  0  0  0  0
    0.0000    0.0000    0.0000 H   0  0  0  0  0  0  0  0  0  0  0  0
    0.0000    0.0000    0.0000 H   0  0  0  0  0  0  0  0  0  0  0  0
    0.0000    0.0000    0.0000 H   0  0  0  0  0  0  0  0  0  0  0  0
    0.0000    0.0000    0.0000 H   0  0  0  0  0  0  0  0  0  0  0  0
    0.0000    0.0000    0.0000 H   0  0  0  0  0  0  0  0  0  0  0  0
    0.0000    0.0000    0.0000 H   0  0  0  0  0  0  0  0  0  0  0  0
    0.0000    0.0000    0.0000 H   0  0  0  0  0  0  0  0  0  0  0  0
    0.0000    0.0000    0.0000 H   0  0  0  0  0  0  0  0  0  0  0  0
    0.0000    0.0000    0.0000 H   0  0  0  0  0  0  0  0  0  0  0  0
    0.0000    0.0000    0.0000 H   0  0  0  0  0  0  0  0  0  0  0  0
    0.0000    0.0000    0.0000 H   0  0  0  0  0  0  0  0  0  0  0  0
    0.0000    0.0000    0.0000 H   0  0  0  0  0  0  0  0  0  0  0  0
    0.0000    0.0000    0.0000 H   0  0  0  0  0  0  0  0  0  0  0  0
    0.0000    0.0000    0.0000 H   0  0  0  0  0  0  0  0  0  0  0  0
  2 22  1  0
  3 27  1  0
  4 28  1  0
  5 27  2  0
  6 28  2  0
  7 29  1  0
  8 29  2  0
  9 13  1  0
  9 14  1  0
  9 21  1  0
 10 15  1  0
 10 17  1  0
 10 23  1  0
 11 16  1  0
 11 18  1  0
 11 24  1  0
 12 19  1  0
 12 20  1  0
 12 25  1  0
 13 16  1  0
 14 15  1  0
 17 19  1  0
 18 20  1  0
 21 22  1  0
 22 26  1  0
 23 28  1  0
 24 27  1  0
 25 29  1  0
  2 30  1  0
 13 31  1  0
 13 32  1  0
 14 33  1  0
 14 34  1  0
 15 35  1  0
 15 36  1  0
 16 37  1  0
 16 38  1  0
 17 39  1  0
 17 40  1  0
 18 41  1  0
 18 42  1  0
 19 43  1  0
 19 44  1  0
 20 45  1  0
 20 46  1  0
 21 47  1  0
 21 48  1  0
 22 49  1  0
 23 50  1  0
 23 51  1  0
 24 52  1  0
 24 53  1  0
 25 54  1  0
 25 55  1  0
 26 56  1  0
 26 57  1  0
 26 58  1  0
M  CHG  4   1   3   3  -1   4  -1   7  -1
M  END
>  <ALOGPS_LOGP>  (1) 
0.36

>  <ALOGPS_LOGS>  (1) 
-1.77

>  <ALOGPS_SOLUBILITY>  (1) 
1.12e+01 g/l

>  <DATABASE_ID>  (1) 
DB00597

>  <DATABASE_NAME>  (1) 
drugbank

>  <DRUGBANK_ID>  (1) 
DB00597

>  <DRUG_GROUPS>  (1) 
approved

>  <EXACT_MASS>  (1) 
559.127724835

>  <FORMULA>  (1) 
C17H29GdN4O7

>  <GENERIC_NAME>  (1) 
Gadoteridol

>  <INCHI_IDENTIFIER>  (1) 
InChI=1S/C17H32N4O7.Gd/c1-14(22)10-18-2-4-19(11-15(23)24)6-8-21(13-17(27)28)9-7-20(5-3-18)12-16(25)26;/h14,22H,2-13H2,1H3,(H,23,24)(H,25,26)(H,27,28);/q;+3/p-3

>  <INCHI_KEY>  (1) 
DPNNNPAKRZOSMO-UHFFFAOYSA-K

>  <JCHEM_ACCEPTOR_COUNT>  (1) 
11

>  <JCHEM_AVERAGE_POLARIZABILITY>  (1) 
39.41891204764478

>  <JCHEM_BIOAVAILABILITY>  (1) 
0

>  <JCHEM_DONOR_COUNT>  (1) 
1

>  <JCHEM_FORMAL_CHARGE>  (1) 
0

>  <JCHEM_GHOSE_FILTER>  (1) 
0

>  <JCHEM_IUPAC>  (1) 
gadolinium(3+) ion 2-[4,7-bis(carboxylatomethyl)-10-(2-hydroxypropyl)-1,4,7,10-tetraazacyclododecan-1-yl]acetate

>  <JCHEM_LOGP>  (1) 
-7.548479817269189

>  <JCHEM_MDDR_LIKE_RULE>  (1) 
0

>  <JCHEM_NUMBER_OF_RINGS>  (1) 
1

>  <JCHEM_PHYSIOLOGICAL_CHARGE>  (1) 
-1

>  <JCHEM_PKA>  (1) 
1.565433136403735

>  <JCHEM_PKA_STRONGEST_ACIDIC>  (1) 
0.7627791932638086

>  <JCHEM_PKA_STRONGEST_BASIC>  (1) 
10.00131496569072

>  <JCHEM_POLAR_SURFACE_AREA>  (1) 
153.58

>  <JCHEM_REFRACTIVITY>  (1) 
133.55259999999998

>  <JCHEM_ROTATABLE_BOND_COUNT>  (1) 
8

>  <JCHEM_RULE_OF_FIVE>  (1) 
0

>  <JCHEM_TRADITIONAL_IUPAC>  (1) 
gadolinium(3+) ion HP-DO3A

>  <JCHEM_VEBER_RULE>  (1) 
0

>  <MOLECULAR_WEIGHT>  (1) 
558.68

>  <PRODUCTS>  (1) 
ProHance; Prohance - Liq IV 279.3mg/ml; Prohance Liq IV 279.3mg/ml

>  <SECONDARY_ACCESSION_NUMBERS>  (1) 
APRD00992

>  <SMILES>  (1) 
[Gd+3].CC(O)CN1CCN(CC([O-])=O)CCN(CC([O-])=O)CCN(CC([O-])=O)CC1

>  <SYNONYMS>  (1) 
Gadoteridol; Gadoteridolum

$$$$
