
     RDKit          2D

 57 59  0  0  0  0  0  0  0  0999 V2000
   -4.2636   -0.8271    0.0000 C   0  0  0  0  0  0  0  0  0  0  0  0
   -4.2636   -1.6543    0.0000 C   0  0  0  0  0  0  0  0  0  0  0  0
   -3.5643   -2.0635    0.0000 C   0  0  0  0  0  0  0  0  0  0  0  0
   -2.8139   -1.6543    0.0000 C   0  0  0  0  0  0  0  0  0  0  0  0
   -2.8139   -0.8271    0.0000 C   0  0  0  0  0  0  0  0  0  0  0  0
   -3.5643   -0.4093    0.0000 C   0  0  0  0  0  0  0  0  0  0  0  0
   -1.4154   -1.6543    0.0000 C   0  0  0  0  0  0  0  0  0  0  0  0
   -1.4154   -0.8271    0.0000 C   0  0  0  0  0  0  0  0  0  0  0  0
   -2.1147   -0.4093    0.0000 C   0  0  0  0  0  0  0  0  0  0  0  0
   -0.6651   -2.0635    0.0000 C   0  0  0  0  0  0  0  0  0  0  0  0
    0.0341   -1.6543    0.0000 C   0  0  0  0  0  0  0  0  0  0  0  0
    0.0341   -0.8271    0.0000 C   0  0  0  0  0  0  0  0  0  0  0  0
   -0.6651   -0.4093    0.0000 C   0  0  0  0  0  0  0  0  0  0  0  0
   -2.1147    0.4177    0.0000 C   0  0  0  0  0  0  0  0  0  0  0  0
    0.7504   -2.0635    0.0000 O   0  0  0  0  0  0  0  0  0  0  0  0
    1.4580   -1.6543    0.0000 C   0  0  0  0  0  0  0  0  0  0  0  0
    2.1573   -2.0549    0.0000 C   0  0  0  0  0  0  0  0  0  0  0  0
    2.8565   -1.6457    0.0000 N   0  0  0  0  0  0  0  0  0  0  0  0
    3.5643   -2.0549    0.0000 C   0  0  0  0  0  0  0  0  0  0  0  0
    4.2636   -1.6457    0.0000 C   0  0  0  0  0  0  0  0  0  0  0  0
    2.8565   -0.8271    0.0000 C   0  0  0  0  0  0  0  0  0  0  0  0
    3.5643   -0.4093    0.0000 C   0  0  0  0  0  0  0  0  0  0  0  0
   -2.8310    0.8271    0.0000 Cl  0  0  0  0  0  0  0  0  0  0  0  0
   -1.3984    0.8271    0.0000 C   0  0  0  0  0  0  0  0  0  0  0  0
   -0.7077    0.4263    0.0000 C   0  0  0  0  0  0  0  0  0  0  0  0
    0.0084    0.8356    0.0000 C   0  0  0  0  0  0  0  0  0  0  0  0
    0.0084    1.6627    0.0000 C   0  0  0  0  0  0  0  0  0  0  0  0
   -0.6821    2.0635    0.0000 C   0  0  0  0  0  0  0  0  0  0  0  0
   -1.3984    1.6542    0.0000 C   0  0  0  0  0  0  0  0  0  0  0  0
    0.0000    0.0000    0.0000 H   0  0  0  0  0  0  0  0  0  0  0  0
    0.0000    0.0000    0.0000 H   0  0  0  0  0  0  0  0  0  0  0  0
    0.0000    0.0000    0.0000 H   0  0  0  0  0  0  0  0  0  0  0  0
    0.0000    0.0000    0.0000 H   0  0  0  0  0  0  0  0  0  0  0  0
    0.0000    0.0000    0.0000 H   0  0  0  0  0  0  0  0  0  0  0  0
    0.0000    0.0000    0.0000 H   0  0  0  0  0  0  0  0  0  0  0  0
    0.0000    0.0000    0.0000 H   0  0  0  0  0  0  0  0  0  0  0  0
    0.0000    0.0000    0.0000 H   0  0  0  0  0  0  0  0  0  0  0  0
    0.0000    0.0000    0.0000 H   0  0  0  0  0  0  0  0  0  0  0  0
    0.0000    0.0000    0.0000 H   0  0  0  0  0  0  0  0  0  0  0  0
    0.0000    0.0000    0.0000 H   0  0  0  0  0  0  0  0  0  0  0  0
    0.0000    0.0000    0.0000 H   0  0  0  0  0  0  0  0  0  0  0  0
    0.0000    0.0000    0.0000 H   0  0  0  0  0  0  0  0  0  0  0  0
    0.0000    0.0000    0.0000 H   0  0  0  0  0  0  0  0  0  0  0  0
    0.0000    0.0000    0.0000 H   0  0  0  0  0  0  0  0  0  0  0  0
    0.0000    0.0000    0.0000 H   0  0  0  0  0  0  0  0  0  0  0  0
    0.0000    0.0000    0.0000 H   0  0  0  0  0  0  0  0  0  0  0  0
    0.0000    0.0000    0.0000 H   0  0  0  0  0  0  0  0  0  0  0  0
    0.0000    0.0000    0.0000 H   0  0  0  0  0  0  0  0  0  0  0  0
    0.0000    0.0000    0.0000 H   0  0  0  0  0  0  0  0  0  0  0  0
    0.0000    0.0000    0.0000 H   0  0  0  0  0  0  0  0  0  0  0  0
    0.0000    0.0000    0.0000 H   0  0  0  0  0  0  0  0  0  0  0  0
    0.0000    0.0000    0.0000 H   0  0  0  0  0  0  0  0  0  0  0  0
    0.0000    0.0000    0.0000 H   0  0  0  0  0  0  0  0  0  0  0  0
    0.0000    0.0000    0.0000 H   0  0  0  0  0  0  0  0  0  0  0  0
    0.0000    0.0000    0.0000 H   0  0  0  0  0  0  0  0  0  0  0  0
    0.0000    0.0000    0.0000 H   0  0  0  0  0  0  0  0  0  0  0  0
    0.0000    0.0000    0.0000 H   0  0  0  0  0  0  0  0  0  0  0  0
  1  2  2  0
  1  6  1  0
  2  3  1  0
  3  4  2  0
  4  5  1  0
  5  6  2  0
  5  9  1  0
  7  8  2  0
  7 10  1  0
  8  9  1  0
  8 13  1  0
  9 14  2  3
 10 11  2  0
 11 12  1  0
 11 15  1  0
 12 13  2  0
 14 23  1  0
 14 24  1  0
 15 16  1  0
 16 17  1  0
 17 18  1  0
 18 19  1  0
 18 21  1  0
 19 20  1  0
 21 22  1  0
 24 25  2  0
 24 29  1  0
 25 26  1  0
 26 27  2  0
 27 28  1  0
 28 29  2  0
  1 30  1  0
  2 31  1  0
  3 32  1  0
  4 33  1  0
  6 34  1  0
  7 35  1  0
 10 36  1  0
 12 37  1  0
 13 38  1  0
 16 39  1  0
 16 40  1  0
 17 41  1  0
 17 42  1  0
 19 43  1  0
 19 44  1  0
 20 45  1  0
 20 46  1  0
 20 47  1  0
 21 48  1  0
 21 49  1  0
 22 50  1  0
 22 51  1  0
 22 52  1  0
 25 53  1  0
 26 54  1  0
 27 55  1  0
 28 56  1  0
 29 57  1  0
M  END
>  <ALOGPS_LOGP>  (1) 
6.08

>  <ALOGPS_LOGS>  (1) 
-5.99

>  <ALOGPS_SOLUBILITY>  (1) 
4.14e-04 g/l

>  <DATABASE_ID>  (1) 
DB00882

>  <DATABASE_NAME>  (1) 
drugbank

>  <DRUGBANK_ID>  (1) 
DB00882

>  <DRUG_GROUPS>  (1) 
approved; investigational

>  <EXACT_MASS>  (1) 
405.18594223

>  <FORMULA>  (1) 
C26H28ClNO

>  <GENERIC_NAME>  (1) 
Clomifene

>  <INCHI_IDENTIFIER>  (1) 
InChI=1S/C26H28ClNO/c1-3-28(4-2)19-20-29-24-17-15-22(16-18-24)25(21-11-7-5-8-12-21)26(27)23-13-9-6-10-14-23/h5-18H,3-4,19-20H2,1-2H3

>  <INCHI_KEY>  (1) 
GKIRPKYJQBWNGO-UHFFFAOYSA-N

>  <INTERNATIONAL_BRANDS>  (1) 
Androxal; Clomifert; Clostilbegyt; Omifin

>  <JCHEM_ACCEPTOR_COUNT>  (1) 
2

>  <JCHEM_ATOM_COUNT>  (1) 
57

>  <JCHEM_AVERAGE_POLARIZABILITY>  (1) 
46.72092213970027

>  <JCHEM_BIOAVAILABILITY>  (1) 
1

>  <JCHEM_DONOR_COUNT>  (1) 
0

>  <JCHEM_FORMAL_CHARGE>  (1) 
0

>  <JCHEM_GHOSE_FILTER>  (1) 
0

>  <JCHEM_IUPAC>  (1) 
{2-[4-(2-chloro-1,2-diphenylethenyl)phenoxy]ethyl}diethylamine

>  <JCHEM_LOGP>  (1) 
6.474937693999999

>  <JCHEM_MDDR_LIKE_RULE>  (1) 
1

>  <JCHEM_NUMBER_OF_RINGS>  (1) 
3

>  <JCHEM_PHYSIOLOGICAL_CHARGE>  (1) 
1

>  <JCHEM_PKA_STRONGEST_BASIC>  (1) 
9.306697064734209

>  <JCHEM_POLAR_SURFACE_AREA>  (1) 
12.47

>  <JCHEM_REFRACTIVITY>  (1) 
133.76119999999997

>  <JCHEM_ROTATABLE_BOND_COUNT>  (1) 
9

>  <JCHEM_RULE_OF_FIVE>  (1) 
0

>  <JCHEM_TRADITIONAL_IUPAC>  (1) 
pioner

>  <JCHEM_VEBER_RULE>  (1) 
1

>  <MOLECULAR_WEIGHT>  (1) 
405.96

>  <PRODUCTS>  (1) 
ClomiPHENE Citrate; Clomid; Clomid 50mg; Clomiphene Citrate; Serophene Tab 50mg

>  <SALTS>  (1) 
Clomifene citrate

>  <SECONDARY_ACCESSION_NUMBERS>  (1) 
APRD00880

>  <SMILES>  (1) 
CCN(CC)CCOC1=CC=C(C=C1)C(=C(Cl)C1=CC=CC=C1)C1=CC=CC=C1

>  <SYNONYMS>  (1) 
2-(4-(2-chloro-1,2-diphenylethenyl)phenoxy)-N,N-diethylethanamine; 2-(p-(2-chloro-1,2-diphenylvinyl)phenoxy)triethylamine; 2-(p-(β-chloro-α-phenylstyryl)phenoxy)triethylamine; Clomifeno; Clomifenum; Clomiphene

$$$$
