738
     RDKit          2D

 49 50  0  0  0  0  0  0  0  0999 V2000
    5.6655   -2.6029    0.0000 O   0  0  0  0  0  0  0  0  0  0  0  0
    7.8089    1.1096    0.0000 O   0  0  0  0  0  0  0  0  0  0  0  0
    2.8075   -5.0780    0.0000 N   0  0  0  0  0  0  0  0  0  0  0  0
    8.5234    4.8222    0.0000 N   0  0  0  0  0  0  0  0  0  0  0  0
    2.0930   -3.8405    0.0000 N   0  0  0  0  0  0  0  0  0  0  0  0
    7.0944    4.8222    0.0000 N   0  0  0  0  0  0  0  0  0  0  0  0
    6.3799   -0.5404    0.0000 C   0  0  0  0  0  0  0  0  0  0  0  0
    6.3799   -1.3654    0.0000 C   0  0  0  0  0  0  0  0  0  0  0  0
    7.0944   -0.1279    0.0000 C   0  0  0  0  0  0  0  0  0  0  0  0
    5.6655   -1.7779    0.0000 C   0  0  0  0  0  0  0  0  0  0  0  0
    7.0944    0.6971    0.0000 C   0  0  0  0  0  0  0  0  0  0  0  0
    4.9509   -3.0154    0.0000 C   0  0  0  0  0  0  0  0  0  0  0  0
    7.8089    1.9347    0.0000 C   0  0  0  0  0  0  0  0  0  0  0  0
    4.2365   -2.6029    0.0000 C   0  0  0  0  0  0  0  0  0  0  0  0
    8.5234    2.3472    0.0000 C   0  0  0  0  0  0  0  0  0  0  0  0
    4.9509   -3.8405    0.0000 C   0  0  0  0  0  0  0  0  0  0  0  0
    7.0944    2.3472    0.0000 C   0  0  0  0  0  0  0  0  0  0  0  0
    3.5220   -3.8405    0.0000 C   0  0  0  0  0  0  0  0  0  0  0  0
    7.8089    3.5847    0.0000 C   0  0  0  0  0  0  0  0  0  0  0  0
    3.5220   -3.0154    0.0000 C   0  0  0  0  0  0  0  0  0  0  0  0
    8.5234    3.1722    0.0000 C   0  0  0  0  0  0  0  0  0  0  0  0
    4.2365   -4.2530    0.0000 C   0  0  0  0  0  0  0  0  0  0  0  0
    7.0944    3.1722    0.0000 C   0  0  0  0  0  0  0  0  0  0  0  0
    2.8075   -4.2530    0.0000 C   0  0  0  0  0  0  0  0  0  0  0  0
    7.8089    4.4097    0.0000 C   0  0  0  0  0  0  0  0  0  0  0  0
    0.0000    0.0000    0.0000 H   0  0  0  0  0  0  0  0  0  0  0  0
    0.0000    0.0000    0.0000 H   0  0  0  0  0  0  0  0  0  0  0  0
    0.0000    0.0000    0.0000 H   0  0  0  0  0  0  0  0  0  0  0  0
    0.0000    0.0000    0.0000 H   0  0  0  0  0  0  0  0  0  0  0  0
    0.0000    0.0000    0.0000 H   0  0  0  0  0  0  0  0  0  0  0  0
    0.0000    0.0000    0.0000 H   0  0  0  0  0  0  0  0  0  0  0  0
    0.0000    0.0000    0.0000 H   0  0  0  0  0  0  0  0  0  0  0  0
    0.0000    0.0000    0.0000 H   0  0  0  0  0  0  0  0  0  0  0  0
    0.0000    0.0000    0.0000 H   0  0  0  0  0  0  0  0  0  0  0  0
    0.0000    0.0000    0.0000 H   0  0  0  0  0  0  0  0  0  0  0  0
    0.0000    0.0000    0.0000 H   0  0  0  0  0  0  0  0  0  0  0  0
    0.0000    0.0000    0.0000 H   0  0  0  0  0  0  0  0  0  0  0  0
    0.0000    0.0000    0.0000 H   0  0  0  0  0  0  0  0  0  0  0  0
    0.0000    0.0000    0.0000 H   0  0  0  0  0  0  0  0  0  0  0  0
    0.0000    0.0000    0.0000 H   0  0  0  0  0  0  0  0  0  0  0  0
    0.0000    0.0000    0.0000 H   0  0  0  0  0  0  0  0  0  0  0  0
    0.0000    0.0000    0.0000 H   0  0  0  0  0  0  0  0  0  0  0  0
    0.0000    0.0000    0.0000 H   0  0  0  0  0  0  0  0  0  0  0  0
    0.0000    0.0000    0.0000 H   0  0  0  0  0  0  0  0  0  0  0  0
    0.0000    0.0000    0.0000 H   0  0  0  0  0  0  0  0  0  0  0  0
    0.0000    0.0000    0.0000 H   0  0  0  0  0  0  0  0  0  0  0  0
    0.0000    0.0000    0.0000 H   0  0  0  0  0  0  0  0  0  0  0  0
    0.0000    0.0000    0.0000 H   0  0  0  0  0  0  0  0  0  0  0  0
    0.0000    0.0000    0.0000 H   0  0  0  0  0  0  0  0  0  0  0  0
  1 10  1  0
  1 12  1  0
  2 11  1  0
  2 13  1  0
  3 24  1  0
  4 25  1  0
  5 24  2  3
  6 25  2  3
  7  8  1  0
  7  9  1  0
  8 10  1  0
  9 11  1  0
 12 14  2  0
 12 16  1  0
 13 15  2  0
 13 17  1  0
 14 20  1  0
 15 21  1  0
 16 22  2  0
 17 23  2  0
 18 20  2  0
 18 22  1  0
 18 24  1  0
 19 21  2  0
 19 23  1  0
 19 25  1  0
  3 26  1  0
  3 27  1  0
  4 28  1  0
  4 29  1  0
  5 30  1  0
  6 31  1  0
  7 32  1  0
  7 33  1  0
  8 34  1  0
  8 35  1  0
  9 36  1  0
  9 37  1  0
 10 38  1  0
 10 39  1  0
 11 40  1  0
 11 41  1  0
 14 42  1  0
 15 43  1  0
 16 44  1  0
 17 45  1  0
 20 46  1  0
 21 47  1  0
 22 48  1  0
 23 49  1  0
M  END
>  <ALOGPS_LOGP>  (1) 
1.32

>  <ALOGPS_LOGS>  (1) 
-4.16

>  <ALOGPS_SOLUBILITY>  (1) 
2.36e-02 g/l

>  <DATABASE_ID>  (1) 
DB00738

>  <DATABASE_NAME>  (1) 
drugbank

>  <DRUGBANK_ID>  (1) 
DB00738

>  <DRUG_GROUPS>  (1) 
approved

>  <EXACT_MASS>  (1) 
340.189926032

>  <FORMULA>  (1) 
C19H24N4O2

>  <GENERIC_NAME>  (1) 
Pentamidine

>  <INCHI_IDENTIFIER>  (1) 
InChI=1S/C19H24N4O2/c20-18(21)14-4-8-16(9-5-14)24-12-2-1-3-13-25-17-10-6-15(7-11-17)19(22)23/h4-11H,1-3,12-13H2,(H3,20,21)(H3,22,23)

>  <INCHI_KEY>  (1) 
XDRYMKDFEDOLFX-UHFFFAOYSA-N

>  <INTERNATIONAL_BRANDS>  (1) 
Pentacarinat; Pentacrinat; Pentam; Pentamidine isethionate; Pneumopent

>  <JCHEM_ACCEPTOR_COUNT>  (1) 
6

>  <JCHEM_AVERAGE_POLARIZABILITY>  (1) 
38.85340776240597

>  <JCHEM_BIOAVAILABILITY>  (1) 
1

>  <JCHEM_DONOR_COUNT>  (1) 
4

>  <JCHEM_FORMAL_CHARGE>  (1) 
0

>  <JCHEM_GHOSE_FILTER>  (1) 
1

>  <JCHEM_IUPAC>  (1) 
4-{[5-(4-carbamimidoylphenoxy)pentyl]oxy}benzene-1-carboximidamide

>  <JCHEM_LOGP>  (1) 
2.322452181

>  <JCHEM_MDDR_LIKE_RULE>  (1) 
0

>  <JCHEM_NUMBER_OF_RINGS>  (1) 
2

>  <JCHEM_PHYSIOLOGICAL_CHARGE>  (1) 
2

>  <JCHEM_PKA_STRONGEST_BASIC>  (1) 
12.127523837671355

>  <JCHEM_POLAR_SURFACE_AREA>  (1) 
118.19999999999999

>  <JCHEM_REFRACTIVITY>  (1) 
120.52940000000001

>  <JCHEM_ROTATABLE_BOND_COUNT>  (1) 
10

>  <JCHEM_RULE_OF_FIVE>  (1) 
1

>  <JCHEM_TRADITIONAL_IUPAC>  (1) 
pentamidine

>  <JCHEM_VEBER_RULE>  (1) 
0

>  <MOLECULAR_WEIGHT>  (1) 
340.4195

>  <PRODUCTS>  (1) 
NebuPent; Pentacarinat 300 Inj Pws 300mg/vial; Pentam 300; Pentamidine Isethionate; Pentamidine Isethionate Inj 300mg/vial BP; Pentamidine Isetionate for Injection BP

>  <SALTS>  (1) 
Pentamidine gluconate; Pentamidine Isethionate; Pentamidine mesylate

>  <SECONDARY_ACCESSION_NUMBERS>  (1) 
APRD00303; EXPT02625

>  <SMILES>  (1) 
NC(=N)C1=CC=C(OCCCCCOC2=CC=C(C=C2)C(N)=N)C=C1

>  <SYNONYMS>  (1) 
Pentamidin; Pentamidina; Pentamidindiisetionat; Pentamidine; Pentamidinum

$$$$
