591
     RDKit          2D

 62 66  0  0  1  0  0  0  0  0999 V2000
    4.9088    1.3655    0.0000 F   0  0  0  0  0  0  0  0  0  0  0  0
    2.4287   -0.6672    0.0000 F   0  0  0  0  0  0  0  0  0  0  0  0
    7.4741   -0.8731    0.0000 O   0  0  0  0  0  0  0  0  0  0  0  0
    6.9362   -2.0785    0.0000 O   0  0  0  0  0  0  0  0  0  0  0  0
    5.3411    1.8278    0.0000 O   0  0  0  0  0  0  0  0  0  0  0  0
    7.2460    0.5198    0.0000 O   0  0  0  0  0  0  0  0  0  0  0  0
    8.7528   -0.1526    0.0000 O   0  0  0  0  0  0  0  0  0  0  0  0
    1.6500    2.3594    0.0000 O   0  0  0  0  0  0  0  0  0  0  0  0
    6.0555   -0.2347    0.0000 C   0  0  0  0  0  0  0  0  0  0  0  0
    5.3411   -0.6472    0.0000 C   0  0  0  0  0  0  0  0  0  0  0  0
    4.6266   -0.2347    0.0000 C   0  0  0  0  0  0  0  0  0  0  0  0
    6.6637   -0.7851    0.0000 C   0  0  0  0  0  0  0  0  0  0  0  0
    4.6266    0.5903    0.0000 C   0  0  0  0  0  0  0  0  0  0  0  0
    6.3294   -1.5340    0.0000 C   0  0  0  0  0  0  0  0  0  0  0  0
    5.5137   -1.4491    0.0000 C   0  0  0  0  0  0  0  0  0  0  0  0
    6.0555    0.5903    0.0000 C   0  0  0  0  0  0  0  0  0  0  0  0
    5.3411    1.0028    0.0000 C   0  0  0  0  0  0  0  0  0  0  0  0
    3.8890    1.0314    0.0000 C   0  0  0  0  0  0  0  0  0  0  0  0
    3.8890   -0.6759    0.0000 C   0  0  0  0  0  0  0  0  0  0  0  0
    6.7701    0.1778    0.0000 C   0  0  0  0  0  0  0  0  0  0  0  0
    3.1416   -0.2520    0.0000 C   0  0  0  0  0  0  0  0  0  0  0  0
    7.3315   -0.3007    0.0000 C   0  0  0  0  0  0  0  0  0  0  0  0
    7.6423   -1.6709    0.0000 C   0  0  0  0  0  0  0  0  0  0  0  0
    3.1416    0.6075    0.0000 C   0  0  0  0  0  0  0  0  0  0  0  0
    4.4242    1.6593    0.0000 C   0  0  0  0  0  0  0  0  0  0  0  0
    3.9098    1.9262    0.0000 C   0  0  0  0  0  0  0  0  0  0  0  0
    8.0849   -0.6370    0.0000 C   0  0  0  0  0  0  0  0  0  0  0  0
    8.0541   -2.3857    0.0000 C   0  0  0  0  0  0  0  0  0  0  0  0
    8.4494   -1.5000    0.0000 C   0  0  0  0  0  0  0  0  0  0  0  0
    2.3629    1.0490    0.0000 C   0  0  0  0  0  0  0  0  0  0  0  0
    3.1416    2.3857    0.0000 C   0  0  0  0  0  0  0  0  0  0  0  0
    2.3629    1.9442    0.0000 C   0  0  0  0  0  0  0  0  0  0  0  0
    0.0000    0.0000    0.0000 H   0  0  0  0  0  0  0  0  0  0  0  0
    0.0000    0.0000    0.0000 H   0  0  0  0  0  0  0  0  0  0  0  0
    0.0000    0.0000    0.0000 H   0  0  0  0  0  0  0  0  0  0  0  0
    0.0000    0.0000    0.0000 H   0  0  0  0  0  0  0  0  0  0  0  0
    0.0000    0.0000    0.0000 H   0  0  0  0  0  0  0  0  0  0  0  0
    0.0000    0.0000    0.0000 H   0  0  0  0  0  0  0  0  0  0  0  0
    0.0000    0.0000    0.0000 H   0  0  0  0  0  0  0  0  0  0  0  0
    0.0000    0.0000    0.0000 H   0  0  0  0  0  0  0  0  0  0  0  0
    0.0000    0.0000    0.0000 H   0  0  0  0  0  0  0  0  0  0  0  0
    0.0000    0.0000    0.0000 H   0  0  0  0  0  0  0  0  0  0  0  0
    0.0000    0.0000    0.0000 H   0  0  0  0  0  0  0  0  0  0  0  0
    0.0000    0.0000    0.0000 H   0  0  0  0  0  0  0  0  0  0  0  0
    0.0000    0.0000    0.0000 H   0  0  0  0  0  0  0  0  0  0  0  0
    0.0000    0.0000    0.0000 H   0  0  0  0  0  0  0  0  0  0  0  0
    0.0000    0.0000    0.0000 H   0  0  0  0  0  0  0  0  0  0  0  0
    0.0000    0.0000    0.0000 H   0  0  0  0  0  0  0  0  0  0  0  0
    0.0000    0.0000    0.0000 H   0  0  0  0  0  0  0  0  0  0  0  0
    0.0000    0.0000    0.0000 H   0  0  0  0  0  0  0  0  0  0  0  0
    0.0000    0.0000    0.0000 H   0  0  0  0  0  0  0  0  0  0  0  0
    0.0000    0.0000    0.0000 H   0  0  0  0  0  0  0  0  0  0  0  0
    0.0000    0.0000    0.0000 H   0  0  0  0  0  0  0  0  0  0  0  0
    0.0000    0.0000    0.0000 H   0  0  0  0  0  0  0  0  0  0  0  0
    0.0000    0.0000    0.0000 H   0  0  0  0  0  0  0  0  0  0  0  0
    0.0000    0.0000    0.0000 H   0  0  0  0  0  0  0  0  0  0  0  0
    0.0000    0.0000    0.0000 H   0  0  0  0  0  0  0  0  0  0  0  0
    0.0000    0.0000    0.0000 H   0  0  0  0  0  0  0  0  0  0  0  0
    0.0000    0.0000    0.0000 H   0  0  0  0  0  0  0  0  0  0  0  0
    0.0000    0.0000    0.0000 H   0  0  0  0  0  0  0  0  0  0  0  0
    0.0000    0.0000    0.0000 H   0  0  0  0  0  0  0  0  0  0  0  0
    0.0000    0.0000    0.0000 H   0  0  0  0  0  0  0  0  0  0  0  0
 13  1  1  6
 21  2  1  6
  3 12  1  0
  3 23  1  0
  4 14  1  0
  4 23  1  0
 17  5  1  1
  6 22  2  0
  7 27  1  0
  8 32  2  0
  9 10  1  0
  9 12  1  0
  9 16  1  0
  9 20  1  1
 10 11  1  0
 10 15  1  0
 11 13  1  0
 11 19  1  0
 12 14  1  0
 12 22  1  1
 13 17  1  0
 13 18  1  0
 14 15  1  0
 16 17  1  0
 18 24  1  0
 18 25  1  1
 18 26  1  0
 19 21  1  0
 21 24  1  0
 22 27  1  0
 23 28  1  0
 23 29  1  0
 24 30  2  0
 26 31  2  0
 30 32  1  0
 31 32  1  0
  5 33  1  0
  7 34  1  0
 10 35  1  6
 11 36  1  1
 14 37  1  1
 15 38  1  0
 15 39  1  0
 16 40  1  0
 16 41  1  0
 17 42  1  0
 19 43  1  0
 19 44  1  0
 20 45  1  0
 20 46  1  0
 20 47  1  0
 21 48  1  0
 25 49  1  0
 25 50  1  0
 25 51  1  0
 26 52  1  0
 27 53  1  0
 27 54  1  0
 28 55  1  0
 28 56  1  0
 28 57  1  0
 29 58  1  0
 29 59  1  0
 29 60  1  0
 30 61  1  0
 31 62  1  0
M  END
>  <ALOGPS_LOGP>  (1) 
2.47

>  <ALOGPS_LOGS>  (1) 
-3.92

>  <ALOGPS_SOLUBILITY>  (1) 
5.47e-02 g/l

>  <DATABASE_ID>  (1) 
DB00591

>  <DATABASE_NAME>  (1) 
drugbank

>  <DRUGBANK_ID>  (1) 
DB00591

>  <DRUG_GROUPS>  (1) 
approved; investigational; vet_approved

>  <EXACT_MASS>  (1) 
452.201045102

>  <FORMULA>  (1) 
C24H30F2O6

>  <GENERIC_NAME>  (1) 
Fluocinolone Acetonide

>  <INCHI_IDENTIFIER>  (1) 
InChI=1S/C24H30F2O6/c1-20(2)31-19-9-13-14-8-16(25)15-7-12(28)5-6-21(15,3)23(14,26)17(29)10-22(13,4)24(19,32-20)18(30)11-27/h5-7,13-14,16-17,19,27,29H,8-11H2,1-4H3/t13-,14-,16-,17-,19+,21-,22-,23-,24+/m0/s1

>  <INCHI_KEY>  (1) 
FEBLZLNTKCEFIT-VSXGLTOVSA-N

>  <INTERNATIONAL_BRANDS>  (1) 
Coriphate; Cortiplastol; Dermalar; Flucinar; Flucort; Fluocet; Fluonid; Fluotrex; Fluovitif; Flupollon; Fluzon; Futocan; Jellin; Locafluo; Localyn; Mecloderm; Omniderm; Percutina; Prodermin; Radiocin; Sinalar; Synamol; Synandone; Synandrone; Synemol; Synotic; Synsac; Tefunote

>  <JCHEM_ACCEPTOR_COUNT>  (1) 
6

>  <JCHEM_AVERAGE_POLARIZABILITY>  (1) 
44.96722905022066

>  <JCHEM_BIOAVAILABILITY>  (1) 
1

>  <JCHEM_DONOR_COUNT>  (1) 
2

>  <JCHEM_FORMAL_CHARGE>  (1) 
0

>  <JCHEM_GHOSE_FILTER>  (1) 
1

>  <JCHEM_IUPAC>  (1) 
(1S,2S,4R,8S,9S,11S,12R,13S,19S)-12,19-difluoro-11-hydroxy-8-(2-hydroxyacetyl)-6,6,9,13-tetramethyl-5,7-dioxapentacyclo[10.8.0.0²,⁹.0⁴,⁸.0¹³,¹⁸]icosa-14,17-dien-16-one

>  <JCHEM_LOGP>  (1) 
1.6043985689999987

>  <JCHEM_MDDR_LIKE_RULE>  (1) 
0

>  <JCHEM_NUMBER_OF_RINGS>  (1) 
5

>  <JCHEM_PHYSIOLOGICAL_CHARGE>  (1) 
0

>  <JCHEM_PKA>  (1) 
13.90336687201335

>  <JCHEM_PKA_STRONGEST_ACIDIC>  (1) 
13.351800608053178

>  <JCHEM_PKA_STRONGEST_BASIC>  (1) 
-3.332086186104937

>  <JCHEM_POLAR_SURFACE_AREA>  (1) 
93.06

>  <JCHEM_REFRACTIVITY>  (1) 
111.4132

>  <JCHEM_ROTATABLE_BOND_COUNT>  (1) 
2

>  <JCHEM_RULE_OF_FIVE>  (1) 
1

>  <JCHEM_TRADITIONAL_IUPAC>  (1) 
capex

>  <JCHEM_VEBER_RULE>  (1) 
0

>  <MOLECULAR_WEIGHT>  (1) 
452.4882

>  <PRODUCTS>  (1) 
Capex; DermOtic; Derma Smoothe/fs Liq 0.01%; Derma-Smoothe/FS; Dermotic Oil Ear Drops; FS Shampoo-0.01%; Fluocinolone Acetonide; Fluocinolone Acetonide Oil; Fluocinolone Acetonide Topical; Fluocinolone acetonide; Fluocinolone acetonide 0.01%; Fluoderm Crm 0.01%; Fluoderm Crm 0.025%; Fluoderm Ont 0.01%; Fluoderm Ont 0.025%; Iluvien; Neo-Synalar; Otixal; Otovel; Retisert; Synalar; Synalar Bi-otic Solution; Synalar Cream 0.025%; Synalar Cream Mild 0.01%; Synalar Ointment; Synalar Ointment Mild 0.01%; Synalar Ont Regular 0.025%; Synalar Solution 0.01%; Synalar TS; Synamol Mild 0.01% Cream; Synamol Regular 0.025% Cream; Tri-luma; Xilapak

>  <SECONDARY_ACCESSION_NUMBERS>  (1) 
APRD00977

>  <SMILES>  (1) 
[H][C@@]12C[C@@]3([H])[C@]4([H])C[C@]([H])(F)C5=CC(=O)C=C[C@]5(C)[C@@]4(F)[C@@H](O)C[C@]3(C)[C@@]1(OC(C)(C)O2)C(=O)CO

>  <SYNONYMS>  (1) 
6alpha-fluorotriamcinolone acetonide; 6alpha,9alpha-difluoro-16alpha-hydroxyprednisolone 16,17-acetonide; 6α-fluorotriamcinolone acetonide; 6α,9α-difluoro-16α-hydroxyprednisolone 16,17-acetonide; acétonide de fluocinolone; acetónido de fluocinolona; fluocinolon acetonid; fluocinolone 16,17-acetonide; fluocinoloni acetonidum

$$$$
