613
     RDKit          2D

 47 49  0  0  0  0  0  0  0  0999 V2000
    9.5637    2.3239    0.0000 Cl  0  0  0  0  0  0  0  0  0  0  0  0
    3.7935   -1.8210    0.0000 O   0  0  0  0  0  0  0  0  0  0  0  0
    3.0790   -0.5835    0.0000 N   0  0  0  0  0  0  0  0  0  0  0  0
    6.6514   -0.1710    0.0000 N   0  0  0  0  0  0  0  0  0  0  0  0
    6.6514    2.3040    0.0000 N   0  0  0  0  0  0  0  0  0  0  0  0
    3.7935   -0.1710    0.0000 C   0  0  0  0  0  0  0  0  0  0  0  0
    4.5079   -0.5835    0.0000 C   0  0  0  0  0  0  0  0  0  0  0  0
    3.0790   -1.4085    0.0000 C   0  0  0  0  0  0  0  0  0  0  0  0
    2.3645   -0.1710    0.0000 C   0  0  0  0  0  0  0  0  0  0  0  0
    5.2224   -0.1710    0.0000 C   0  0  0  0  0  0  0  0  0  0  0  0
    5.9369   -0.5835    0.0000 C   0  0  0  0  0  0  0  0  0  0  0  0
    4.5079   -1.4085    0.0000 C   0  0  0  0  0  0  0  0  0  0  0  0
    2.3645   -1.8210    0.0000 C   0  0  0  0  0  0  0  0  0  0  0  0
    1.6500   -0.5835    0.0000 C   0  0  0  0  0  0  0  0  0  0  0  0
    5.9369   -1.4085    0.0000 C   0  0  0  0  0  0  0  0  0  0  0  0
    6.6514    0.6540    0.0000 C   0  0  0  0  0  0  0  0  0  0  0  0
    5.2224   -1.8210    0.0000 C   0  0  0  0  0  0  0  0  0  0  0  0
    7.3658    1.0665    0.0000 C   0  0  0  0  0  0  0  0  0  0  0  0
    7.3658    1.8915    0.0000 C   0  0  0  0  0  0  0  0  0  0  0  0
    5.9369    1.0665    0.0000 C   0  0  0  0  0  0  0  0  0  0  0  0
    8.1033    0.6254    0.0000 C   0  0  0  0  0  0  0  0  0  0  0  0
    8.1033    2.3325    0.0000 C   0  0  0  0  0  0  0  0  0  0  0  0
    5.9369    1.8915    0.0000 C   0  0  0  0  0  0  0  0  0  0  0  0
    8.8509    1.0493    0.0000 C   0  0  0  0  0  0  0  0  0  0  0  0
    8.8509    1.9087    0.0000 C   0  0  0  0  0  0  0  0  0  0  0  0
    0.0000    0.0000    0.0000 H   0  0  0  0  0  0  0  0  0  0  0  0
    0.0000    0.0000    0.0000 H   0  0  0  0  0  0  0  0  0  0  0  0
    0.0000    0.0000    0.0000 H   0  0  0  0  0  0  0  0  0  0  0  0
    0.0000    0.0000    0.0000 H   0  0  0  0  0  0  0  0  0  0  0  0
    0.0000    0.0000    0.0000 H   0  0  0  0  0  0  0  0  0  0  0  0
    0.0000    0.0000    0.0000 H   0  0  0  0  0  0  0  0  0  0  0  0
    0.0000    0.0000    0.0000 H   0  0  0  0  0  0  0  0  0  0  0  0
    0.0000    0.0000    0.0000 H   0  0  0  0  0  0  0  0  0  0  0  0
    0.0000    0.0000    0.0000 H   0  0  0  0  0  0  0  0  0  0  0  0
    0.0000    0.0000    0.0000 H   0  0  0  0  0  0  0  0  0  0  0  0
    0.0000    0.0000    0.0000 H   0  0  0  0  0  0  0  0  0  0  0  0
    0.0000    0.0000    0.0000 H   0  0  0  0  0  0  0  0  0  0  0  0
    0.0000    0.0000    0.0000 H   0  0  0  0  0  0  0  0  0  0  0  0
    0.0000    0.0000    0.0000 H   0  0  0  0  0  0  0  0  0  0  0  0
    0.0000    0.0000    0.0000 H   0  0  0  0  0  0  0  0  0  0  0  0
    0.0000    0.0000    0.0000 H   0  0  0  0  0  0  0  0  0  0  0  0
    0.0000    0.0000    0.0000 H   0  0  0  0  0  0  0  0  0  0  0  0
    0.0000    0.0000    0.0000 H   0  0  0  0  0  0  0  0  0  0  0  0
    0.0000    0.0000    0.0000 H   0  0  0  0  0  0  0  0  0  0  0  0
    0.0000    0.0000    0.0000 H   0  0  0  0  0  0  0  0  0  0  0  0
    0.0000    0.0000    0.0000 H   0  0  0  0  0  0  0  0  0  0  0  0
    0.0000    0.0000    0.0000 H   0  0  0  0  0  0  0  0  0  0  0  0
  1 25  1  0
  2 12  1  0
  3  6  1  0
  3  8  1  0
  3  9  1  0
  4 11  1  0
  4 16  1  0
  5 19  2  0
  5 23  1  0
  6  7  1  0
  7 10  2  0
  7 12  1  0
  8 13  1  0
  9 14  1  0
 10 11  1  0
 11 15  2  0
 12 17  2  0
 15 17  1  0
 16 18  2  0
 16 20  1  0
 18 19  1  0
 18 21  1  0
 19 22  1  0
 20 23  2  0
 21 24  2  0
 22 25  2  0
 24 25  1  0
  2 26  1  0
  4 27  1  0
  6 28  1  0
  6 29  1  0
  8 30  1  0
  8 31  1  0
  9 32  1  0
  9 33  1  0
 10 34  1  0
 13 35  1  0
 13 36  1  0
 13 37  1  0
 14 38  1  0
 14 39  1  0
 14 40  1  0
 15 41  1  0
 17 42  1  0
 20 43  1  0
 21 44  1  0
 22 45  1  0
 23 46  1  0
 24 47  1  0
M  END
>  <ALOGPS_LOGP>  (1) 
4.83

>  <ALOGPS_LOGS>  (1) 
-4.61

>  <ALOGPS_SOLUBILITY>  (1) 
8.80e-03 g/l

>  <DATABASE_ID>  (1) 
DB00613

>  <DATABASE_NAME>  (1) 
drugbank

>  <DRUGBANK_ID>  (1) 
DB00613

>  <DRUG_GROUPS>  (1) 
approved; investigational

>  <EXACT_MASS>  (1) 
355.145140048

>  <FORMULA>  (1) 
C20H22ClN3O

>  <GENERIC_NAME>  (1) 
Amodiaquine

>  <INCHI_IDENTIFIER>  (1) 
InChI=1S/C20H22ClN3O/c1-3-24(4-2)13-14-11-16(6-8-20(14)25)23-18-9-10-22-19-12-15(21)5-7-17(18)19/h5-12,25H,3-4,13H2,1-2H3,(H,22,23)

>  <INCHI_KEY>  (1) 
OVCDSSHSILBFBN-UHFFFAOYSA-N

>  <INTERNATIONAL_BRANDS>  (1) 
Basoquin; Camoquin; Flavoquine

>  <JCHEM_ACCEPTOR_COUNT>  (1) 
4

>  <JCHEM_AVERAGE_POLARIZABILITY>  (1) 
38.894067086153626

>  <JCHEM_BIOAVAILABILITY>  (1) 
1

>  <JCHEM_DONOR_COUNT>  (1) 
2

>  <JCHEM_FORMAL_CHARGE>  (1) 
0

>  <JCHEM_GHOSE_FILTER>  (1) 
1

>  <JCHEM_IUPAC>  (1) 
4-[(7-chloroquinolin-4-yl)amino]-2-[(diethylamino)methyl]phenol

>  <JCHEM_LOGP>  (1) 
3.7630057371844083

>  <JCHEM_MDDR_LIKE_RULE>  (1) 
1

>  <JCHEM_NUMBER_OF_RINGS>  (1) 
3

>  <JCHEM_PHYSIOLOGICAL_CHARGE>  (1) 
1

>  <JCHEM_PKA_STRONGEST_ACIDIC>  (1) 
9.12454876031753

>  <JCHEM_PKA_STRONGEST_BASIC>  (1) 
10.227252328902408

>  <JCHEM_POLAR_SURFACE_AREA>  (1) 
48.39

>  <JCHEM_REFRACTIVITY>  (1) 
103.29110000000001

>  <JCHEM_ROTATABLE_BOND_COUNT>  (1) 
6

>  <JCHEM_RULE_OF_FIVE>  (1) 
1

>  <JCHEM_TRADITIONAL_IUPAC>  (1) 
amodiaquine

>  <JCHEM_VEBER_RULE>  (1) 
0

>  <MOLECULAR_WEIGHT>  (1) 
355.861

>  <SALTS>  (1) 
Amodiaquine dihydrochloride dihydrate; Amodiaquine hydrochloride

>  <SECONDARY_ACCESSION_NUMBERS>  (1) 
APRD00796

>  <SMILES>  (1) 
CCN(CC)CC1=C(O)C=CC(NC2=C3C=CC(Cl)=CC3=NC=C2)=C1

$$$$
