935
     RDKit          2D

 43 44  0  0  0  0  0  0  0  0999 V2000
    2.0930    1.2002    0.0000 O   0  0  0  0  0  0  0  0  0  0  0  0
    4.3227   -2.5079    0.0000 N   0  0  0  0  0  0  0  0  0  0  0  0
    4.9902   -1.3519    0.0000 N   0  0  0  0  0  0  0  0  0  0  0  0
    3.5220    2.0252    0.0000 C   0  0  0  0  0  0  0  0  0  0  0  0
    3.5220    1.2002    0.0000 C   0  0  0  0  0  0  0  0  0  0  0  0
    3.5220   -0.4499    0.0000 C   0  0  0  0  0  0  0  0  0  0  0  0
    2.8075    0.7876    0.0000 C   0  0  0  0  0  0  0  0  0  0  0  0
    2.8075   -0.0374    0.0000 C   0  0  0  0  0  0  0  0  0  0  0  0
    4.2365   -0.0374    0.0000 C   0  0  0  0  0  0  0  0  0  0  0  0
    4.2365    0.7876    0.0000 C   0  0  0  0  0  0  0  0  0  0  0  0
    3.5220    2.8502    0.0000 C   0  0  0  0  0  0  0  0  0  0  0  0
    4.3470    2.0252    0.0000 C   0  0  0  0  0  0  0  0  0  0  0  0
    2.6970    2.0252    0.0000 C   0  0  0  0  0  0  0  0  0  0  0  0
    3.5220   -1.2749    0.0000 C   0  0  0  0  0  0  0  0  0  0  0  0
    4.2365   -1.6874    0.0000 C   0  0  0  0  0  0  0  0  0  0  0  0
    2.0930   -0.4499    0.0000 C   0  0  0  0  0  0  0  0  0  0  0  0
    4.9509   -0.4499    0.0000 C   0  0  0  0  0  0  0  0  0  0  0  0
    5.1297   -2.6794    0.0000 C   0  0  0  0  0  0  0  0  0  0  0  0
    5.5422   -1.9649    0.0000 C   0  0  0  0  0  0  0  0  0  0  0  0
    0.0000    0.0000    0.0000 H   0  0  0  0  0  0  0  0  0  0  0  0
    0.0000    0.0000    0.0000 H   0  0  0  0  0  0  0  0  0  0  0  0
    0.0000    0.0000    0.0000 H   0  0  0  0  0  0  0  0  0  0  0  0
    0.0000    0.0000    0.0000 H   0  0  0  0  0  0  0  0  0  0  0  0
    0.0000    0.0000    0.0000 H   0  0  0  0  0  0  0  0  0  0  0  0
    0.0000    0.0000    0.0000 H   0  0  0  0  0  0  0  0  0  0  0  0
    0.0000    0.0000    0.0000 H   0  0  0  0  0  0  0  0  0  0  0  0
    0.0000    0.0000    0.0000 H   0  0  0  0  0  0  0  0  0  0  0  0
    0.0000    0.0000    0.0000 H   0  0  0  0  0  0  0  0  0  0  0  0
    0.0000    0.0000    0.0000 H   0  0  0  0  0  0  0  0  0  0  0  0
    0.0000    0.0000    0.0000 H   0  0  0  0  0  0  0  0  0  0  0  0
    0.0000    0.0000    0.0000 H   0  0  0  0  0  0  0  0  0  0  0  0
    0.0000    0.0000    0.0000 H   0  0  0  0  0  0  0  0  0  0  0  0
    0.0000    0.0000    0.0000 H   0  0  0  0  0  0  0  0  0  0  0  0
    0.0000    0.0000    0.0000 H   0  0  0  0  0  0  0  0  0  0  0  0
    0.0000    0.0000    0.0000 H   0  0  0  0  0  0  0  0  0  0  0  0
    0.0000    0.0000    0.0000 H   0  0  0  0  0  0  0  0  0  0  0  0
    0.0000    0.0000    0.0000 H   0  0  0  0  0  0  0  0  0  0  0  0
    0.0000    0.0000    0.0000 H   0  0  0  0  0  0  0  0  0  0  0  0
    0.0000    0.0000    0.0000 H   0  0  0  0  0  0  0  0  0  0  0  0
    0.0000    0.0000    0.0000 H   0  0  0  0  0  0  0  0  0  0  0  0
    0.0000    0.0000    0.0000 H   0  0  0  0  0  0  0  0  0  0  0  0
    0.0000    0.0000    0.0000 H   0  0  0  0  0  0  0  0  0  0  0  0
    0.0000    0.0000    0.0000 H   0  0  0  0  0  0  0  0  0  0  0  0
  1  7  1  0
  2 15  1  0
  2 18  1  0
  3 15  2  0
  3 19  1  0
  4  5  1  0
  4 11  1  0
  4 12  1  0
  4 13  1  0
  5  7  2  0
  5 10  1  0
  6  8  2  0
  6  9  1  0
  6 14  1  0
  7  8  1  0
  8 16  1  0
  9 10  2  0
  9 17  1  0
 14 15  1  0
 18 19  1  0
  1 20  1  0
  2 21  1  0
 10 22  1  0
 11 23  1  0
 11 24  1  0
 11 25  1  0
 12 26  1  0
 12 27  1  0
 12 28  1  0
 13 29  1  0
 13 30  1  0
 13 31  1  0
 14 32  1  0
 14 33  1  0
 16 34  1  0
 16 35  1  0
 16 36  1  0
 17 37  1  0
 17 38  1  0
 17 39  1  0
 18 40  1  0
 18 41  1  0
 19 42  1  0
 19 43  1  0
M  END
>  <ALOGPS_LOGP>  (1) 
3.70

>  <ALOGPS_LOGS>  (1) 
-3.70

>  <ALOGPS_SOLUBILITY>  (1) 
5.15e-02 g/l

>  <DATABASE_ID>  (1) 
DB00935

>  <DATABASE_NAME>  (1) 
drugbank

>  <DRUGBANK_ID>  (1) 
DB00935

>  <DRUG_GROUPS>  (1) 
approved

>  <EXACT_MASS>  (1) 
260.1888634

>  <FORMULA>  (1) 
C16H24N2O

>  <GENERIC_NAME>  (1) 
Oxymetazoline

>  <INCHI_IDENTIFIER>  (1) 
InChI=1S/C16H24N2O/c1-10-8-13(16(3,4)5)15(19)11(2)12(10)9-14-17-6-7-18-14/h8,19H,6-7,9H2,1-5H3,(H,17,18)

>  <INCHI_KEY>  (1) 
WYWIFABBXFUGLM-UHFFFAOYSA-N

>  <INTERNATIONAL_BRANDS>  (1) 
Afrin; Dristan 12-Hour; Duramist Plus; Genasal Nasal Spray Up to 12 Hour Relief; Iliadin; Neo-Synephrine 12 Hour Spray; Nezeril; Nostrilla 12 Hour Nasal Decongestant; OcuClear; Vicks Sinex 12 Hour Nasal Spray; Vicks Sinex 12 Hour Ultra Fine Mist for Sinus Relief

>  <JCHEM_ACCEPTOR_COUNT>  (1) 
3

>  <JCHEM_AVERAGE_POLARIZABILITY>  (1) 
30.64030111183132

>  <JCHEM_BIOAVAILABILITY>  (1) 
1

>  <JCHEM_DONOR_COUNT>  (1) 
2

>  <JCHEM_FORMAL_CHARGE>  (1) 
0

>  <JCHEM_GHOSE_FILTER>  (1) 
1

>  <JCHEM_IUPAC>  (1) 
6-tert-butyl-3-(4,5-dihydro-1H-imidazol-2-ylmethyl)-2,4-dimethylphenol

>  <JCHEM_LOGP>  (1) 
3.032315205208703

>  <JCHEM_MDDR_LIKE_RULE>  (1) 
0

>  <JCHEM_NUMBER_OF_RINGS>  (1) 
2

>  <JCHEM_PHYSIOLOGICAL_CHARGE>  (1) 
1

>  <JCHEM_PKA_STRONGEST_ACIDIC>  (1) 
10.906928467098338

>  <JCHEM_PKA_STRONGEST_BASIC>  (1) 
10.149300298695183

>  <JCHEM_POLAR_SURFACE_AREA>  (1) 
44.62

>  <JCHEM_REFRACTIVITY>  (1) 
79.79849999999999

>  <JCHEM_ROTATABLE_BOND_COUNT>  (1) 
3

>  <JCHEM_RULE_OF_FIVE>  (1) 
1

>  <JCHEM_TRADITIONAL_IUPAC>  (1) 
oxymetazoline

>  <JCHEM_VEBER_RULE>  (1) 
0

>  <MOLECULAR_WEIGHT>  (1) 
260.3746

>  <PRODUCTS>  (1) 
12 Hour Nasal; 12 Hour Original Nasal Decongestant; 7 Select Nasal; 7 Select Original Nasal; Afrin Cold; Afrin No Drip Extra Moisturizing; Afrin No Drip Original Pump Mist; Afrin No Drip Severe Congestion; Afrin No Drip Sinus Pump Mist; Afrin No-Drip Allergy Sinus; Afrin Original; Afrin Original Pump Mist; Afrin Severe Congestion; Afrin Sinus; Anefrin Nasal; Anefrin Nasal Extra Moisturizing; Anefrin Nasal Original; Assured Nasal Relief; Assured Nasal Relief Original; Assured Severe Congestion Nasal Relief; Being Well Nasal 12 Hour; Breaze Nasal Moisturizing; Breaze Nasal Sinus Colds and Allergies; CVS Health Nasal Mist; CVS Health Sinus Relief; Care One Nasal; Care One Nasal Extra Moisturizing; Care One Nasal Original; Care One Nasal Sinus; CareOne Severe Congestion Nasal; Circle K Congestion Relief; Claritin Allergy Decongestant; Claritin Eye Allergy Relief; Clear Time; Cleartime; Clirol Nasal Spray; Congestion Relief Lil Drug Store Products; Cooling Menthol Nasal Spray; DG HEalth Nasal; DG Health Clear Time; Decongestant Nasal; Decongestant Nasal Mist Long Lasting; Dg Health Nasal Original; Dg Health Sinus Relief; Dristan 12 Hr; Drixoral Decongestant Nasal Spray; Drixoral Nasal Congestion; Drixoral No Drip Extra Moisturizing; Drixoral No Drip Original Unscented; Drixoral No Drip With Calming Chamomile; Drixoral No Drip With Cooling Menthol; EQUALINE Oxymetazoline HCl Nasal Decongestant No Drip; Equaline Nasal; Equate Nasal; Equate Nasal Original; Exchange Select Nasal; Extra Moisturizing; Extra Moisturizing Nasal Spray; Extra Moisturizing No Drip Nasal Walgreens; Family Care Nasal Relief; FormuCare Nasal Spray Original; Good Neighbor Pharmacy Nasal; Good Neighbor Pharmacy Nasal Extra Moisturizing; Good Sense Nasal; HEB Nasal decongestant No Drip Extra Moisturizing; Health Mart Nasal; Healthy Accents Nasal; Healthy Accents Nasal Original; Leader Extra Moisturizing Nasal; Leader Nasal; Leader Original Nasal; Leader Severe Congestion Nasal; Long Lasting Decongestant Nasal Spray; Long Lasting Dristan Mentholated Nasal Spray; Long Lasting Dristan Nasal Mist; Long Lasting Nasal Mist; Maximum Strenth Nasal; Mucinex Full Force; Mucinex Moisture Smart; Mucinex Nasal Full Force; Mucinex Nasal Moisture Smart; Mucinex Sinus-Max Full Force; Mucinex Sinus-action Congestion & Sinus Nasal Spray; Mucinex Sinus-action Moisture Smart Nasal Spray; Nafrine Pediatric Nasal Spray/drops 0.025%; Nasal; Nasal 12 Hour; Nasal Congestion Spray; Nasal D; Nasal D Original; Nasal Decongestant; Nasal Decongestant Extra Moisturizing; Nasal Decongestant Extra Moisturizing Premier Value; Nasal Decongestant Premier Value; Nasal Decongestant Sinus Premier Value; Nasal Extra Moisturizing; Nasal Mist; Nasal Mist CVS; Nasal Mist Walgreens; Nasal Original; Nasal Relief; Nasal Relief 12-Hour; Nasal Sinus; Nasal decongestant; Nasalub Nasal Relief; No Drip; No Drip Nasal Mist Nasal Decongestant Severe Congestion; No Drip Nasal Mist Original; No Drip Premier Value; No Drip Severe Congestion Premier Value; Nostrilla; OXYMETAZOLINE HCl; Ocuclear Oph Dps 0.025%; Original; Original No Drip Nasal Walgreens; Original Unscented Nasal Spray; Otrivin Medicated No Drip; Otrivin Medicated Sinus; Oxymetazoline HCl; Oxymetazoline Hydrochloride; Oxymetazoline Hydrochloride 12-Hour; Oxymetazoline Hydrochloride Nasal Spray 0.05%; Oxymetazoline Hydrochloride Nasal Spray 0.05% With Moisturizers; Preferred Plus 12 Hour Nasal Extra Moisturizing; Preferred Plus 12 Hour Nasal Original; Preferred Plus Nasal; Rexall Sinus Nasal Pump Mist; Rhofade; Rx Act Nasal Extra Moisturizing; Rx Act Nasal Original; Rx Act Nasal Sinus; Severe Congestion Nasal no drip Walgreens; ShopRite Nasal; Shopko Extra Moisturizing Nasal; Shopko Original Nasal; Shopko Severe Congestion Nasal; Signature Care Nasal Decongestant; Sinex Complete; Sinex Complete Ultra Fine Mist; Sinex Moisturizing Ultra Fine Mist; Sinex Scent Free Ultra Fine Mist; SinuFrin NeilMed; SinuFrin Plus NeilMed; Sinufrin; Sinufrin Plus; Sinus Relief; Sinus relief; Smart Sense Nasal; Smart Sense Nasal Extra Moisturizing; Smart Sense Nasal Original; Smart Sense Pump Mist; Smart Sense pump mist; Smart Sense sinus relief; Sound Body 12 Hour Nasal Original; Sound Body Nasal; Sunmark Nasal; Sunmark Nasal Original; Sunmark no drip; Todays Health Nasal Relief Extra Moisturizing; Todays Health Nasal Relief Original; Todays Health Sinus Nasal Relief; Topcare Clear Time; Topcare Nasal; Topcare Sinus Relief; Topcare Sinus Severe; Ultra Fine Mist Premier Value; Up and Up Nasal Extra Moisturizing; Up and Up nasal; Up and up nasal; Vicks QlearQuil 12 Hour Decongestant Moisturizing; Vicks Sinex 12 Hour Decongestant; Vicks Sinex 12 Hour Decongestant Nasal; Vicks Sinex 12 Hour Decongestant Ultra Fine Mist; Vicks Sinex 12 Hour Decongestant Ultra Fine Mist Moisturizing; Vicks Sinex 12 Hour Nasal Decongestant Ultra Fine Mist Moisturizing; Vicks Sinex Decongestant Nasal Spray 0.05%; Vicks Sinex Scent Free; Visine L.R.; Visine L.R. Ophthalmic Sol 0.025%; Visine Workplace; WinCo Foods Extra Moisturizing Nasal Relief; WinCo Foods Original Nasal; WinCo Foods Severe Congestion Nasal Relief; Zicam; Zicam Congestion Relief; Zicam Sinus Relief

>  <SALTS>  (1) 
Oxymetazoline hydrochloride

>  <SECONDARY_ACCESSION_NUMBERS>  (1) 
APRD01158

>  <SMILES>  (1) 
CC1=CC(=C(O)C(C)=C1CC1=NCCN1)C(C)(C)C

>  <SYNONYMS>  (1) 
Oximetazolinum; Oxymethazoline; Oxymetozoline

$$$$
