899
     RDKit          2D

 55 56  0  0  0  0  0  0  0  0999 V2000
    2.2820    1.2883    0.0000 O   0  0  0  0  0  0  0  0  0  0  0  0
    2.7751    2.3458    0.0000 O   0  0  0  0  0  0  0  0  0  0  0  0
    3.4282    3.1992    0.0000 O   0  0  0  0  0  0  0  0  0  0  0  0
    2.2603   -3.0849    0.0000 O   0  0  0  0  0  0  0  0  0  0  0  0
    3.6893   -3.0849    0.0000 O   0  0  0  0  0  0  0  0  0  0  0  0
    3.6893   -0.6099    0.0000 N   0  0  0  0  0  0  0  0  0  0  0  0
    4.1018    1.7546    0.0000 N   0  0  0  0  0  0  0  0  0  0  0  0
    3.6893    1.0402    0.0000 C   0  0  0  0  0  0  0  0  0  0  0  0
    2.9749    0.6277    0.0000 C   0  0  0  0  0  0  0  0  0  0  0  0
    4.4038    0.6277    0.0000 C   0  0  0  0  0  0  0  0  0  0  0  0
    2.9749   -0.1973    0.0000 C   0  0  0  0  0  0  0  0  0  0  0  0
    4.4038   -0.1973    0.0000 C   0  0  0  0  0  0  0  0  0  0  0  0
    3.0573    1.5705    0.0000 C   0  0  0  0  0  0  0  0  0  0  0  0
    3.6893   -1.4349    0.0000 C   0  0  0  0  0  0  0  0  0  0  0  0
    4.9268    1.7546    0.0000 C   0  0  0  0  0  0  0  0  0  0  0  0
    3.9585    2.5671    0.0000 C   0  0  0  0  0  0  0  0  0  0  0  0
    2.9749   -1.8474    0.0000 C   0  0  0  0  0  0  0  0  0  0  0  0
    4.5906    3.0974    0.0000 C   0  0  0  0  0  0  0  0  0  0  0  0
    5.3394    2.4691    0.0000 C   0  0  0  0  0  0  0  0  0  0  0  0
    5.3394    1.0402    0.0000 C   0  0  0  0  0  0  0  0  0  0  0  0
    2.9749   -2.6724    0.0000 C   0  0  0  0  0  0  0  0  0  0  0  0
    4.4473    3.9099    0.0000 C   0  0  0  0  0  0  0  0  0  0  0  0
    1.6500    1.8186    0.0000 C   0  0  0  0  0  0  0  0  0  0  0  0
    6.1644    2.4691    0.0000 C   0  0  0  0  0  0  0  0  0  0  0  0
    6.1644    1.0402    0.0000 C   0  0  0  0  0  0  0  0  0  0  0  0
    6.5769    1.7546    0.0000 C   0  0  0  0  0  0  0  0  0  0  0  0
    2.2603   -3.9099    0.0000 C   0  0  0  0  0  0  0  0  0  0  0  0
    0.0000    0.0000    0.0000 H   0  0  0  0  0  0  0  0  0  0  0  0
    0.0000    0.0000    0.0000 H   0  0  0  0  0  0  0  0  0  0  0  0
    0.0000    0.0000    0.0000 H   0  0  0  0  0  0  0  0  0  0  0  0
    0.0000    0.0000    0.0000 H   0  0  0  0  0  0  0  0  0  0  0  0
    0.0000    0.0000    0.0000 H   0  0  0  0  0  0  0  0  0  0  0  0
    0.0000    0.0000    0.0000 H   0  0  0  0  0  0  0  0  0  0  0  0
    0.0000    0.0000    0.0000 H   0  0  0  0  0  0  0  0  0  0  0  0
    0.0000    0.0000    0.0000 H   0  0  0  0  0  0  0  0  0  0  0  0
    0.0000    0.0000    0.0000 H   0  0  0  0  0  0  0  0  0  0  0  0
    0.0000    0.0000    0.0000 H   0  0  0  0  0  0  0  0  0  0  0  0
    0.0000    0.0000    0.0000 H   0  0  0  0  0  0  0  0  0  0  0  0
    0.0000    0.0000    0.0000 H   0  0  0  0  0  0  0  0  0  0  0  0
    0.0000    0.0000    0.0000 H   0  0  0  0  0  0  0  0  0  0  0  0
    0.0000    0.0000    0.0000 H   0  0  0  0  0  0  0  0  0  0  0  0
    0.0000    0.0000    0.0000 H   0  0  0  0  0  0  0  0  0  0  0  0
    0.0000    0.0000    0.0000 H   0  0  0  0  0  0  0  0  0  0  0  0
    0.0000    0.0000    0.0000 H   0  0  0  0  0  0  0  0  0  0  0  0
    0.0000    0.0000    0.0000 H   0  0  0  0  0  0  0  0  0  0  0  0
    0.0000    0.0000    0.0000 H   0  0  0  0  0  0  0  0  0  0  0  0
    0.0000    0.0000    0.0000 H   0  0  0  0  0  0  0  0  0  0  0  0
    0.0000    0.0000    0.0000 H   0  0  0  0  0  0  0  0  0  0  0  0
    0.0000    0.0000    0.0000 H   0  0  0  0  0  0  0  0  0  0  0  0
    0.0000    0.0000    0.0000 H   0  0  0  0  0  0  0  0  0  0  0  0
    0.0000    0.0000    0.0000 H   0  0  0  0  0  0  0  0  0  0  0  0
    0.0000    0.0000    0.0000 H   0  0  0  0  0  0  0  0  0  0  0  0
    0.0000    0.0000    0.0000 H   0  0  0  0  0  0  0  0  0  0  0  0
    0.0000    0.0000    0.0000 H   0  0  0  0  0  0  0  0  0  0  0  0
    0.0000    0.0000    0.0000 H   0  0  0  0  0  0  0  0  0  0  0  0
  1 13  1  0
  1 23  1  0
  2 13  2  0
  3 16  2  0
  4 21  1  0
  4 27  1  0
  5 21  2  0
  6 11  1  0
  6 12  1  0
  6 14  1  0
  7  8  1  0
  7 15  1  0
  7 16  1  0
  8  9  1  0
  8 10  1  0
  8 13  1  0
  9 11  1  0
 10 12  1  0
 14 17  1  0
 15 19  2  0
 15 20  1  0
 16 18  1  0
 17 21  1  0
 18 22  1  0
 19 24  1  0
 20 25  2  0
 24 26  2  0
 25 26  1  0
  9 28  1  0
  9 29  1  0
 10 30  1  0
 10 31  1  0
 11 32  1  0
 11 33  1  0
 12 34  1  0
 12 35  1  0
 14 36  1  0
 14 37  1  0
 17 38  1  0
 17 39  1  0
 18 40  1  0
 18 41  1  0
 19 42  1  0
 20 43  1  0
 22 44  1  0
 22 45  1  0
 22 46  1  0
 23 47  1  0
 23 48  1  0
 23 49  1  0
 24 50  1  0
 25 51  1  0
 26 52  1  0
 27 53  1  0
 27 54  1  0
 27 55  1  0
M  END
>  <ALOGPS_LOGP>  (1) 
1.75

>  <ALOGPS_LOGS>  (1) 
-2.80

>  <ALOGPS_SOLUBILITY>  (1) 
5.91e-01 g/l

>  <DATABASE_ID>  (1) 
DB00899

>  <DATABASE_NAME>  (1) 
drugbank

>  <DRUGBANK_ID>  (1) 
DB00899

>  <DRUG_GROUPS>  (1) 
approved

>  <EXACT_MASS>  (1) 
376.199822016

>  <FORMULA>  (1) 
C20H28N2O5

>  <GENERIC_NAME>  (1) 
Remifentanil

>  <INCHI_IDENTIFIER>  (1) 
InChI=1S/C20H28N2O5/c1-4-17(23)22(16-8-6-5-7-9-16)20(19(25)27-3)11-14-21(15-12-20)13-10-18(24)26-2/h5-9H,4,10-15H2,1-3H3

>  <INCHI_KEY>  (1) 
ZTVQQQVZCWLTDF-UHFFFAOYSA-N

>  <JCHEM_ACCEPTOR_COUNT>  (1) 
4

>  <JCHEM_AVERAGE_POLARIZABILITY>  (1) 
40.82270201202426

>  <JCHEM_BIOAVAILABILITY>  (1) 
1

>  <JCHEM_DONOR_COUNT>  (1) 
0

>  <JCHEM_FORMAL_CHARGE>  (1) 
0

>  <JCHEM_GHOSE_FILTER>  (1) 
1

>  <JCHEM_IUPAC>  (1) 
methyl 1-(3-methoxy-3-oxopropyl)-4-(N-phenylpropanamido)piperidine-4-carboxylate

>  <JCHEM_LOGP>  (1) 
1.5152788399999992

>  <JCHEM_MDDR_LIKE_RULE>  (1) 
0

>  <JCHEM_NUMBER_OF_RINGS>  (1) 
2

>  <JCHEM_PHYSIOLOGICAL_CHARGE>  (1) 
1

>  <JCHEM_PKA_STRONGEST_BASIC>  (1) 
7.508324300961132

>  <JCHEM_POLAR_SURFACE_AREA>  (1) 
76.15

>  <JCHEM_REFRACTIVITY>  (1) 
100.56150000000002

>  <JCHEM_ROTATABLE_BOND_COUNT>  (1) 
9

>  <JCHEM_RULE_OF_FIVE>  (1) 
1

>  <JCHEM_TRADITIONAL_IUPAC>  (1) 
remifentanil

>  <JCHEM_VEBER_RULE>  (1) 
0

>  <MOLECULAR_WEIGHT>  (1) 
376.4467

>  <PRODUCTS>  (1) 
Remifentanil Hydrochloride for Injection; Remifentanil for Injection; Ultiva

>  <SALTS>  (1) 
Remifentanil hydrochloride

>  <SECONDARY_ACCESSION_NUMBERS>  (1) 
APRD01216

>  <SMILES>  (1) 
CCC(=O)N(C1=CC=CC=C1)C1(CCN(CCC(=O)OC)CC1)C(=O)OC

$$$$
