966
     RDKit          2D

 69 74  0  0  0  0  0  0  0  0999 V2000
   10.5580    2.7902    0.0000 O   0  0  0  0  0  0  0  0  0  0  0  0
    9.4945    1.8359    0.0000 O   0  0  0  0  0  0  0  0  0  0  0  0
    7.1110   -0.8569    0.0000 N   0  0  0  0  0  0  0  0  0  0  0  0
    7.1110   -2.1848    0.0000 N   0  0  0  0  0  0  0  0  0  0  0  0
    3.4379   -1.0301    0.0000 N   0  0  0  0  0  0  0  0  0  0  0  0
    4.1018    0.1199    0.0000 N   0  0  0  0  0  0  0  0  0  0  0  0
    6.3303   -1.1084    0.0000 C   0  0  0  0  0  0  0  0  0  0  0  0
    7.5925   -1.5209    0.0000 C   0  0  0  0  0  0  0  0  0  0  0  0
    6.3303   -1.9334    0.0000 C   0  0  0  0  0  0  0  0  0  0  0  0
    7.3672   -0.0728    0.0000 C   0  0  0  0  0  0  0  0  0  0  0  0
    8.4175   -1.5209    0.0000 C   0  0  0  0  0  0  0  0  0  0  0  0
    4.9014   -1.1084    0.0000 C   0  0  0  0  0  0  0  0  0  0  0  0
    5.6158   -0.6959    0.0000 C   0  0  0  0  0  0  0  0  0  0  0  0
    5.6158   -2.3459    0.0000 C   0  0  0  0  0  0  0  0  0  0  0  0
    4.9014   -1.9334    0.0000 C   0  0  0  0  0  0  0  0  0  0  0  0
    4.1869   -0.6959    0.0000 C   0  0  0  0  0  0  0  0  0  0  0  0
    8.1745    0.0974    0.0000 C   0  0  0  0  0  0  0  0  0  0  0  0
    8.8300   -2.2354    0.0000 C   0  0  0  0  0  0  0  0  0  0  0  0
    5.6158   -3.1710    0.0000 C   0  0  0  0  0  0  0  0  0  0  0  0
    2.8876   -0.4221    0.0000 C   0  0  0  0  0  0  0  0  0  0  0  0
    3.3001    0.2925    0.0000 C   0  0  0  0  0  0  0  0  0  0  0  0
    8.4309    0.8815    0.0000 C   0  0  0  0  0  0  0  0  0  0  0  0
    8.7256   -0.5167    0.0000 C   0  0  0  0  0  0  0  0  0  0  0  0
    9.6550   -2.2354    0.0000 C   0  0  0  0  0  0  0  0  0  0  0  0
    3.2678   -1.8374    0.0000 C   0  0  0  0  0  0  0  0  0  0  0  0
    9.7891    0.4376    0.0000 C   0  0  0  0  0  0  0  0  0  0  0  0
    9.2381    1.0517    0.0000 C   0  0  0  0  0  0  0  0  0  0  0  0
    9.5328   -0.3466    0.0000 C   0  0  0  0  0  0  0  0  0  0  0  0
    2.0625   -0.4221    0.0000 C   0  0  0  0  0  0  0  0  0  0  0  0
    2.8876    1.0069    0.0000 C   0  0  0  0  0  0  0  0  0  0  0  0
   10.5965    0.6078    0.0000 C   0  0  0  0  0  0  0  0  0  0  0  0
    1.6500    0.2925    0.0000 C   0  0  0  0  0  0  0  0  0  0  0  0
    2.0625    1.0069    0.0000 C   0  0  0  0  0  0  0  0  0  0  0  0
   10.8527    1.3920    0.0000 C   0  0  0  0  0  0  0  0  0  0  0  0
   11.1474   -0.0063    0.0000 C   0  0  0  0  0  0  0  0  0  0  0  0
   11.6600    1.5621    0.0000 C   0  0  0  0  0  0  0  0  0  0  0  0
   11.9547    0.1638    0.0000 C   0  0  0  0  0  0  0  0  0  0  0  0
   12.2110    0.9480    0.0000 C   0  0  0  0  0  0  0  0  0  0  0  0
   10.3018    2.0060    0.0000 C   0  0  0  0  0  0  0  0  0  0  0  0
    0.0000    0.0000    0.0000 H   0  0  0  0  0  0  0  0  0  0  0  0
    0.0000    0.0000    0.0000 H   0  0  0  0  0  0  0  0  0  0  0  0
    0.0000    0.0000    0.0000 H   0  0  0  0  0  0  0  0  0  0  0  0
    0.0000    0.0000    0.0000 H   0  0  0  0  0  0  0  0  0  0  0  0
    0.0000    0.0000    0.0000 H   0  0  0  0  0  0  0  0  0  0  0  0
    0.0000    0.0000    0.0000 H   0  0  0  0  0  0  0  0  0  0  0  0
    0.0000    0.0000    0.0000 H   0  0  0  0  0  0  0  0  0  0  0  0
    0.0000    0.0000    0.0000 H   0  0  0  0  0  0  0  0  0  0  0  0
    0.0000    0.0000    0.0000 H   0  0  0  0  0  0  0  0  0  0  0  0
    0.0000    0.0000    0.0000 H   0  0  0  0  0  0  0  0  0  0  0  0
    0.0000    0.0000    0.0000 H   0  0  0  0  0  0  0  0  0  0  0  0
    0.0000    0.0000    0.0000 H   0  0  0  0  0  0  0  0  0  0  0  0
    0.0000    0.0000    0.0000 H   0  0  0  0  0  0  0  0  0  0  0  0
    0.0000    0.0000    0.0000 H   0  0  0  0  0  0  0  0  0  0  0  0
    0.0000    0.0000    0.0000 H   0  0  0  0  0  0  0  0  0  0  0  0
    0.0000    0.0000    0.0000 H   0  0  0  0  0  0  0  0  0  0  0  0
    0.0000    0.0000    0.0000 H   0  0  0  0  0  0  0  0  0  0  0  0
    0.0000    0.0000    0.0000 H   0  0  0  0  0  0  0  0  0  0  0  0
    0.0000    0.0000    0.0000 H   0  0  0  0  0  0  0  0  0  0  0  0
    0.0000    0.0000    0.0000 H   0  0  0  0  0  0  0  0  0  0  0  0
    0.0000    0.0000    0.0000 H   0  0  0  0  0  0  0  0  0  0  0  0
    0.0000    0.0000    0.0000 H   0  0  0  0  0  0  0  0  0  0  0  0
    0.0000    0.0000    0.0000 H   0  0  0  0  0  0  0  0  0  0  0  0
    0.0000    0.0000    0.0000 H   0  0  0  0  0  0  0  0  0  0  0  0
    0.0000    0.0000    0.0000 H   0  0  0  0  0  0  0  0  0  0  0  0
    0.0000    0.0000    0.0000 H   0  0  0  0  0  0  0  0  0  0  0  0
    0.0000    0.0000    0.0000 H   0  0  0  0  0  0  0  0  0  0  0  0
    0.0000    0.0000    0.0000 H   0  0  0  0  0  0  0  0  0  0  0  0
    0.0000    0.0000    0.0000 H   0  0  0  0  0  0  0  0  0  0  0  0
    0.0000    0.0000    0.0000 H   0  0  0  0  0  0  0  0  0  0  0  0
  1 39  1  0
  2 39  2  0
  3  7  1  0
  3  8  1  0
  3 10  1  0
  4  8  2  0
  4  9  1  0
  5 16  1  0
  5 20  1  0
  5 25  1  0
  6 16  2  0
  6 21  1  0
  7  9  2  0
  7 13  1  0
  8 11  1  0
  9 14  1  0
 10 17  1  0
 11 18  1  0
 12 13  2  0
 12 15  1  0
 12 16  1  0
 14 15  2  0
 14 19  1  0
 17 22  2  0
 17 23  1  0
 18 24  1  0
 20 21  2  0
 20 29  1  0
 21 30  1  0
 22 27  1  0
 23 28  2  0
 26 27  2  0
 26 28  1  0
 26 31  1  0
 29 32  2  0
 30 33  2  0
 31 34  2  0
 31 35  1  0
 32 33  1  0
 34 36  1  0
 34 39  1  0
 35 37  2  0
 36 38  2  0
 37 38  1  0
  1 40  1  0
 10 41  1  0
 10 42  1  0
 11 43  1  0
 11 44  1  0
 13 45  1  0
 15 46  1  0
 18 47  1  0
 18 48  1  0
 19 49  1  0
 19 50  1  0
 19 51  1  0
 22 52  1  0
 23 53  1  0
 24 54  1  0
 24 55  1  0
 24 56  1  0
 25 57  1  0
 25 58  1  0
 25 59  1  0
 27 60  1  0
 28 61  1  0
 29 62  1  0
 30 63  1  0
 32 64  1  0
 33 65  1  0
 35 66  1  0
 36 67  1  0
 37 68  1  0
 38 69  1  0
M  END
>  <ALOGPS_LOGP>  (1) 
6.66

>  <ALOGPS_LOGS>  (1) 
-5.17

>  <ALOGPS_SOLUBILITY>  (1) 
3.50e-03 g/l

>  <DATABASE_ID>  (1) 
DB00966

>  <DATABASE_NAME>  (1) 
drugbank

>  <DRUGBANK_ID>  (1) 
DB00966

>  <DRUG_GROUPS>  (1) 
approved; investigational

>  <EXACT_MASS>  (1) 
514.236876224

>  <FORMULA>  (1) 
C33H30N4O2

>  <GENERIC_NAME>  (1) 
Telmisartan

>  <INCHI_IDENTIFIER>  (1) 
InChI=1S/C33H30N4O2/c1-4-9-30-35-31-21(2)18-24(32-34-27-12-7-8-13-28(27)36(32)3)19-29(31)37(30)20-22-14-16-23(17-15-22)25-10-5-6-11-26(25)33(38)39/h5-8,10-19H,4,9,20H2,1-3H3,(H,38,39)

>  <INCHI_KEY>  (1) 
RMMXLENWKUUMAY-UHFFFAOYSA-N

>  <JCHEM_ACCEPTOR_COUNT>  (1) 
4

>  <JCHEM_AVERAGE_POLARIZABILITY>  (1) 
58.61416121349462

>  <JCHEM_BIOAVAILABILITY>  (1) 
0

>  <JCHEM_DONOR_COUNT>  (1) 
1

>  <JCHEM_FORMAL_CHARGE>  (1) 
0

>  <JCHEM_GHOSE_FILTER>  (1) 
0

>  <JCHEM_IUPAC>  (1) 
2-(4-{[4-methyl-6-(1-methyl-1H-1,3-benzodiazol-2-yl)-2-propyl-1H-1,3-benzodiazol-1-yl]methyl}phenyl)benzoic acid

>  <JCHEM_LOGP>  (1) 
6.040852203862813

>  <JCHEM_MDDR_LIKE_RULE>  (1) 
1

>  <JCHEM_NUMBER_OF_RINGS>  (1) 
6

>  <JCHEM_PHYSIOLOGICAL_CHARGE>  (1) 
-1

>  <JCHEM_PKA_STRONGEST_ACIDIC>  (1) 
3.6459569629207307

>  <JCHEM_PKA_STRONGEST_BASIC>  (1) 
6.128050434619358

>  <JCHEM_POLAR_SURFACE_AREA>  (1) 
72.94

>  <JCHEM_REFRACTIVITY>  (1) 
164.48879999999994

>  <JCHEM_ROTATABLE_BOND_COUNT>  (1) 
7

>  <JCHEM_RULE_OF_FIVE>  (1) 
0

>  <JCHEM_TRADITIONAL_IUPAC>  (1) 
telmisartan

>  <JCHEM_VEBER_RULE>  (1) 
0

>  <MOLECULAR_WEIGHT>  (1) 
514.6169

>  <PRODUCTS>  (1) 
Ach-telmisartan Hctz; Act Telmisartan; Act Telmisartan/hct; Actelsar Hct; Apo-telmisartan; Apo-telmisartan/hctz; Auro-telmisartan; Auro-telmisartan Hctz; Kinzalmono; Mar-telmisartan; Micardis; Micardis 40mg Tab; Micardis 80mg Tab; Micardis HCT; Micardis Plus; Mylan-telmisartan; Mylan-telmisartan Hctz; Ntp-telmisartan; Ntp-telmisartan Hctz; PMS-telmisartan; PMS-telmisartan-hctz; Pendo-telmisartan; Pendo-telmisartan-hctz; Pritor; Ran-telmisartan; Ran-telmisartan Hctz; Sandoz Telmisartan; Sandoz Telmisartan Hct; Septa-telmisartan; TELMISARTAN and HYDROCHLOROTHIAZIDE; Telmisartan; Telmisartan Hctz; Telmisartan Tablets; Telmisartan Teva; Telmisartan Teva Pharma; Telmisartan and Amlodipine; Telmisartan and Hydrochlorothiazide; Telmisartan and Hydrochlorothiazide 40 mg/12.5 mg; Telmisartan and Hydrochlorothiazide 80 mg/12.5 mg; Telmisartan and Hydrochlorothiazide 80 mg/25 mg; Telmisartan and Hydrochlorthiazide; Telmisartan-hctz; Telmisartan/hctz; Teva-telmisartan; Teva-telmisartan Hctz; Tolura; Torrent-telmisartan; Torrent-telmisartan and Hydrochlorothiazide; Twynsta; Van-telmisartan; Van-telmisartan-hctz; Zinda-telmisartan; Zinda-telmisartan/ Hctz

>  <SECONDARY_ACCESSION_NUMBERS>  (1) 
APRD01247

>  <SMILES>  (1) 
CCCC1=NC2=C(C=C(C=C2C)C2=NC3=CC=CC=C3N2C)N1CC1=CC=C(C=C1)C1=CC=CC=C1C(O)=O

$$$$
