625
     RDKit          2D

 30 32  0  0  1  0  0  0  0  0999 V2000
    5.9914    0.3836    0.0000 Cl  0  0  0  0  0  0  0  0  0  0  0  0
    3.0791   -1.0255    0.0000 F   0  0  0  0  0  0  0  0  0  0  0  0
    2.2540   -1.0255    0.0000 F   0  0  0  0  0  0  0  0  0  0  0  0
    1.9520    0.1015    0.0000 F   0  0  0  0  0  0  0  0  0  0  0  0
    2.3645    0.8159    0.0000 O   0  0  0  0  0  0  0  0  0  0  0  0
    1.6500    2.0535    0.0000 O   0  0  0  0  0  0  0  0  0  0  0  0
    3.0791    2.0535    0.0000 N   0  0  0  0  0  0  0  0  0  0  0  0
    4.3166   -1.7400    0.0000 C   0  0  0  0  0  0  0  0  0  0  0  0
    5.0310   -2.1525    0.0000 C   0  0  0  0  0  0  0  0  0  0  0  0
    4.3166   -2.5650    0.0000 C   0  0  0  0  0  0  0  0  0  0  0  0
    3.0791    0.4034    0.0000 C   0  0  0  0  0  0  0  0  0  0  0  0
    3.9041   -1.0255    0.0000 C   0  0  0  0  0  0  0  0  0  0  0  0
    3.7935    0.8159    0.0000 C   0  0  0  0  0  0  0  0  0  0  0  0
    3.4916   -0.3110    0.0000 C   0  0  0  0  0  0  0  0  0  0  0  0
    3.7935    1.6410    0.0000 C   0  0  0  0  0  0  0  0  0  0  0  0
    2.6665   -0.3110    0.0000 C   0  0  0  0  0  0  0  0  0  0  0  0
    4.5310    0.3749    0.0000 C   0  0  0  0  0  0  0  0  0  0  0  0
    4.5310    2.0821    0.0000 C   0  0  0  0  0  0  0  0  0  0  0  0
    2.3645    1.6410    0.0000 C   0  0  0  0  0  0  0  0  0  0  0  0
    5.2785    0.7988    0.0000 C   0  0  0  0  0  0  0  0  0  0  0  0
    5.2785    1.6582    0.0000 C   0  0  0  0  0  0  0  0  0  0  0  0
    0.0000    0.0000    0.0000 H   0  0  0  0  0  0  0  0  0  0  0  0
    0.0000    0.0000    0.0000 H   0  0  0  0  0  0  0  0  0  0  0  0
    0.0000    0.0000    0.0000 H   0  0  0  0  0  0  0  0  0  0  0  0
    0.0000    0.0000    0.0000 H   0  0  0  0  0  0  0  0  0  0  0  0
    0.0000    0.0000    0.0000 H   0  0  0  0  0  0  0  0  0  0  0  0
    0.0000    0.0000    0.0000 H   0  0  0  0  0  0  0  0  0  0  0  0
    0.0000    0.0000    0.0000 H   0  0  0  0  0  0  0  0  0  0  0  0
    0.0000    0.0000    0.0000 H   0  0  0  0  0  0  0  0  0  0  0  0
    0.0000    0.0000    0.0000 H   0  0  0  0  0  0  0  0  0  0  0  0
  1 20  1  0
  2 16  1  0
  3 16  1  0
  4 16  1  0
  5 11  1  0
  5 19  1  0
  6 19  2  0
  7 15  1  0
  7 19  1  0
  8  9  1  0
  8 10  1  0
  8 12  1  0
  9 10  1  0
 11 13  1  0
 11 14  1  6
 11 16  1  0
 12 14  3  0
 13 15  2  0
 13 17  1  0
 15 18  1  0
 17 20  2  0
 18 21  2  0
 20 21  1  0
  7 22  1  0
  8 23  1  0
  9 24  1  0
  9 25  1  0
 10 26  1  0
 10 27  1  0
 17 28  1  0
 18 29  1  0
 21 30  1  0
M  END
>  <ALOGPS_LOGP>  (1) 
3.89

>  <ALOGPS_LOGS>  (1) 
-4.57

>  <ALOGPS_SOLUBILITY>  (1) 
8.55e-03 g/l

>  <DATABASE_ID>  (1) 
DB00625

>  <DATABASE_NAME>  (1) 
drugbank

>  <DRUGBANK_ID>  (1) 
DB00625

>  <DRUG_GROUPS>  (1) 
approved; investigational

>  <EXACT_MASS>  (1) 
315.027390859

>  <FORMULA>  (1) 
C14H9ClF3NO2

>  <GENERIC_NAME>  (1) 
Efavirenz

>  <INCHI_IDENTIFIER>  (1) 
InChI=1S/C14H9ClF3NO2/c15-9-3-4-11-10(7-9)13(14(16,17)18,21-12(20)19-11)6-5-8-1-2-8/h3-4,7-8H,1-2H2,(H,19,20)/t13-/m0/s1

>  <INCHI_KEY>  (1) 
XPOQHMRABVBWPR-ZDUSSCGKSA-N

>  <INTERNATIONAL_BRANDS>  (1) 
E.F; Efavir; Efavirenz; Efcure; Efferven; Estiva; Evirenz; Stocrin; Viranz

>  <JCHEM_ACCEPTOR_COUNT>  (1) 
2

>  <JCHEM_AVERAGE_POLARIZABILITY>  (1) 
26.811455689844223

>  <JCHEM_BIOAVAILABILITY>  (1) 
1

>  <JCHEM_DONOR_COUNT>  (1) 
1

>  <JCHEM_FORMAL_CHARGE>  (1) 
0

>  <JCHEM_GHOSE_FILTER>  (1) 
1

>  <JCHEM_IUPAC>  (1) 
(4S)-6-chloro-4-(2-cyclopropylethynyl)-4-(trifluoromethyl)-2,4-dihydro-1H-3,1-benzoxazin-2-one

>  <JCHEM_LOGP>  (1) 
4.456526315666666

>  <JCHEM_MDDR_LIKE_RULE>  (1) 
0

>  <JCHEM_NUMBER_OF_RINGS>  (1) 
3

>  <JCHEM_PHYSIOLOGICAL_CHARGE>  (1) 
0

>  <JCHEM_PKA_STRONGEST_ACIDIC>  (1) 
12.523443377040433

>  <JCHEM_PKA_STRONGEST_BASIC>  (1) 
-1.4900395586410093

>  <JCHEM_POLAR_SURFACE_AREA>  (1) 
38.33

>  <JCHEM_REFRACTIVITY>  (1) 
71.34230000000001

>  <JCHEM_ROTATABLE_BOND_COUNT>  (1) 
3

>  <JCHEM_RULE_OF_FIVE>  (1) 
1

>  <JCHEM_TRADITIONAL_IUPAC>  (1) 
efavirenz

>  <JCHEM_VEBER_RULE>  (1) 
1

>  <MOLECULAR_WEIGHT>  (1) 
315.675

>  <PRODUCTS>  (1) 
Apo-efavirenz-emtricitabine-tenofovir; Atripla; Auro-efavirenz; Mylan-efavirenz; Mylan-efavirenz/emtricitabine/tenofovir Disoproxil Fumarate; Stocrin; Sustiva; Sustiva 100mg; Sustiva 200mg; Sustiva 50mg; Sustiva Tablets; Teva-efavirenz; Teva-efavirenz/emtricitabine/tenofovir

>  <SECONDARY_ACCESSION_NUMBERS>  (1) 
APRD00059; DB07709

>  <SMILES>  (1) 
FC(F)(F)[C@]1(OC(=O)NC2=C1C=C(Cl)C=C2)C#CC1CC1

>  <SYNONYMS>  (1) 
Efavirenz; Ã‰favirenz; Efavirenzum

$$$$
