519
     RDKit          2D

 65 67  0  0  1  0  0  0  0  0999 V2000
    7.0831   -1.0977    0.0000 O   0  0  0  0  0  0  0  0  0  0  0  0
    7.7385   -3.4304    0.0000 O   0  0  0  0  0  0  0  0  0  0  0  0
    7.7385   -2.0015    0.0000 O   0  0  0  0  0  0  0  0  0  0  0  0
    5.1355    2.1427    0.0000 O   0  0  0  0  0  0  0  0  0  0  0  0
    6.4937    1.6988    0.0000 O   0  0  0  0  0  0  0  0  0  0  0  0
    6.0195   -2.0521    0.0000 N   0  0  0  0  0  0  0  0  0  0  0  0
    5.9811    0.1304    0.0000 N   0  0  0  0  0  0  0  0  0  0  0  0
    5.2389   -3.1285    0.0000 C   0  0  0  0  0  0  0  0  0  0  0  0
    5.2389   -2.3035    0.0000 C   0  0  0  0  0  0  0  0  0  0  0  0
    6.0195   -3.3799    0.0000 C   0  0  0  0  0  0  0  0  0  0  0  0
    6.5010   -2.7160    0.0000 C   0  0  0  0  0  0  0  0  0  0  0  0
    4.5244   -3.5410    0.0000 C   0  0  0  0  0  0  0  0  0  0  0  0
    4.5244   -1.8909    0.0000 C   0  0  0  0  0  0  0  0  0  0  0  0
    3.8099   -3.1285    0.0000 C   0  0  0  0  0  0  0  0  0  0  0  0
    3.8099   -2.3035    0.0000 C   0  0  0  0  0  0  0  0  0  0  0  0
    6.2758   -1.2679    0.0000 C   0  0  0  0  0  0  0  0  0  0  0  0
    7.3260   -2.7160    0.0000 C   0  0  0  0  0  0  0  0  0  0  0  0
    5.7248   -0.6538    0.0000 C   0  0  0  0  0  0  0  0  0  0  0  0
    4.9175   -0.8239    0.0000 C   0  0  0  0  0  0  0  0  0  0  0  0
    5.4302    0.7445    0.0000 C   0  0  0  0  0  0  0  0  0  0  0  0
    4.6229    0.5743    0.0000 C   0  0  0  0  0  0  0  0  0  0  0  0
    5.6864    1.5287    0.0000 C   0  0  0  0  0  0  0  0  0  0  0  0
    4.0719    1.1884    0.0000 C   0  0  0  0  0  0  0  0  0  0  0  0
    3.2646    1.0182    0.0000 C   0  0  0  0  0  0  0  0  0  0  0  0
    5.3917    2.9269    0.0000 C   0  0  0  0  0  0  0  0  0  0  0  0
    2.7136    1.6323    0.0000 C   0  0  0  0  0  0  0  0  0  0  0  0
    3.0083    0.2341    0.0000 C   0  0  0  0  0  0  0  0  0  0  0  0
    1.9064    1.4622    0.0000 C   0  0  0  0  0  0  0  0  0  0  0  0
    2.2010    0.0639    0.0000 C   0  0  0  0  0  0  0  0  0  0  0  0
    4.8408    3.5410    0.0000 C   0  0  0  0  0  0  0  0  0  0  0  0
    1.6500    0.6780    0.0000 C   0  0  0  0  0  0  0  0  0  0  0  0
    0.0000    0.0000    0.0000 H   0  0  0  0  0  0  0  0  0  0  0  0
    0.0000    0.0000    0.0000 H   0  0  0  0  0  0  0  0  0  0  0  0
    0.0000    0.0000    0.0000 H   0  0  0  0  0  0  0  0  0  0  0  0
    0.0000    0.0000    0.0000 H   0  0  0  0  0  0  0  0  0  0  0  0
    0.0000    0.0000    0.0000 H   0  0  0  0  0  0  0  0  0  0  0  0
    0.0000    0.0000    0.0000 H   0  0  0  0  0  0  0  0  0  0  0  0
    0.0000    0.0000    0.0000 H   0  0  0  0  0  0  0  0  0  0  0  0
    0.0000    0.0000    0.0000 H   0  0  0  0  0  0  0  0  0  0  0  0
    0.0000    0.0000    0.0000 H   0  0  0  0  0  0  0  0  0  0  0  0
    0.0000    0.0000    0.0000 H   0  0  0  0  0  0  0  0  0  0  0  0
    0.0000    0.0000    0.0000 H   0  0  0  0  0  0  0  0  0  0  0  0
    0.0000    0.0000    0.0000 H   0  0  0  0  0  0  0  0  0  0  0  0
    0.0000    0.0000    0.0000 H   0  0  0  0  0  0  0  0  0  0  0  0
    0.0000    0.0000    0.0000 H   0  0  0  0  0  0  0  0  0  0  0  0
    0.0000    0.0000    0.0000 H   0  0  0  0  0  0  0  0  0  0  0  0
    0.0000    0.0000    0.0000 H   0  0  0  0  0  0  0  0  0  0  0  0
    0.0000    0.0000    0.0000 H   0  0  0  0  0  0  0  0  0  0  0  0
    0.0000    0.0000    0.0000 H   0  0  0  0  0  0  0  0  0  0  0  0
    0.0000    0.0000    0.0000 H   0  0  0  0  0  0  0  0  0  0  0  0
    0.0000    0.0000    0.0000 H   0  0  0  0  0  0  0  0  0  0  0  0
    0.0000    0.0000    0.0000 H   0  0  0  0  0  0  0  0  0  0  0  0
    0.0000    0.0000    0.0000 H   0  0  0  0  0  0  0  0  0  0  0  0
    0.0000    0.0000    0.0000 H   0  0  0  0  0  0  0  0  0  0  0  0
    0.0000    0.0000    0.0000 H   0  0  0  0  0  0  0  0  0  0  0  0
    0.0000    0.0000    0.0000 H   0  0  0  0  0  0  0  0  0  0  0  0
    0.0000    0.0000    0.0000 H   0  0  0  0  0  0  0  0  0  0  0  0
    0.0000    0.0000    0.0000 H   0  0  0  0  0  0  0  0  0  0  0  0
    0.0000    0.0000    0.0000 H   0  0  0  0  0  0  0  0  0  0  0  0
    0.0000    0.0000    0.0000 H   0  0  0  0  0  0  0  0  0  0  0  0
    0.0000    0.0000    0.0000 H   0  0  0  0  0  0  0  0  0  0  0  0
    0.0000    0.0000    0.0000 H   0  0  0  0  0  0  0  0  0  0  0  0
    0.0000    0.0000    0.0000 H   0  0  0  0  0  0  0  0  0  0  0  0
    0.0000    0.0000    0.0000 H   0  0  0  0  0  0  0  0  0  0  0  0
    0.0000    0.0000    0.0000 H   0  0  0  0  0  0  0  0  0  0  0  0
  1 16  2  0
  2 17  1  0
  3 17  2  0
  4 22  1  0
  4 25  1  0
  5 22  2  0
  6  9  1  0
  6 11  1  0
  6 16  1  0
 18  7  1  6
 20  7  1  6
  8  9  1  0
  8 10  1  0
  8 12  1  0
  9 13  1  0
 10 11  1  0
 11 17  1  1
 12 14  1  0
 13 15  1  0
 14 15  1  0
 16 18  1  0
 18 19  1  0
 20 21  1  0
 20 22  1  0
 21 23  1  0
 23 24  1  0
 24 26  2  0
 24 27  1  0
 25 30  1  0
 26 28  1  0
 27 29  2  0
 28 31  2  0
 29 31  1  0
  2 32  1  0
  7 33  1  0
  8 34  1  6
  9 35  1  1
 10 36  1  0
 10 37  1  0
 11 38  1  0
 12 39  1  0
 12 40  1  0
 13 41  1  0
 13 42  1  0
 14 43  1  0
 14 44  1  0
 15 45  1  0
 15 46  1  0
 18 47  1  0
 19 48  1  0
 19 49  1  0
 19 50  1  0
 20 51  1  0
 21 52  1  0
 21 53  1  0
 23 54  1  0
 23 55  1  0
 25 56  1  0
 25 57  1  0
 26 58  1  0
 27 59  1  0
 28 60  1  0
 29 61  1  0
 30 62  1  0
 30 63  1  0
 30 64  1  0
 31 65  1  0
M  END
>  <ALOGPS_LOGP>  (1) 
1.31

>  <ALOGPS_LOGS>  (1) 
-4.32

>  <ALOGPS_SOLUBILITY>  (1) 
2.07e-02 g/l

>  <DATABASE_ID>  (1) 
DB00519

>  <DATABASE_NAME>  (1) 
drugbank

>  <DRUGBANK_ID>  (1) 
DB00519

>  <DRUG_GROUPS>  (1) 
approved

>  <EXACT_MASS>  (1) 
430.246772208

>  <FORMULA>  (1) 
C24H34N2O5

>  <GENERIC_NAME>  (1) 
Trandolapril

>  <INCHI_IDENTIFIER>  (1) 
InChI=1S/C24H34N2O5/c1-3-31-24(30)19(14-13-17-9-5-4-6-10-17)25-16(2)22(27)26-20-12-8-7-11-18(20)15-21(26)23(28)29/h4-6,9-10,16,18-21,25H,3,7-8,11-15H2,1-2H3,(H,28,29)/t16-,18+,19-,20-,21-/m0/s1

>  <INCHI_KEY>  (1) 
VXFJYXUZANRPDJ-WTNASJBWSA-N

>  <JCHEM_ACCEPTOR_COUNT>  (1) 
5

>  <JCHEM_AVERAGE_POLARIZABILITY>  (1) 
46.7908268482963

>  <JCHEM_BIOAVAILABILITY>  (1) 
1

>  <JCHEM_DONOR_COUNT>  (1) 
2

>  <JCHEM_FORMAL_CHARGE>  (1) 
0

>  <JCHEM_GHOSE_FILTER>  (1) 
1

>  <JCHEM_IUPAC>  (1) 
(2S,3aR,7aS)-1-[(2S)-2-{[(2S)-1-ethoxy-1-oxo-4-phenylbutan-2-yl]amino}propanoyl]-octahydro-1H-indole-2-carboxylic acid

>  <JCHEM_LOGP>  (1) 
1.9473587942916133

>  <JCHEM_MDDR_LIKE_RULE>  (1) 
1

>  <JCHEM_NUMBER_OF_RINGS>  (1) 
3

>  <JCHEM_PHYSIOLOGICAL_CHARGE>  (1) 
-1

>  <JCHEM_PKA_STRONGEST_ACIDIC>  (1) 
3.799917848495624

>  <JCHEM_PKA_STRONGEST_BASIC>  (1) 
5.2056489674218

>  <JCHEM_POLAR_SURFACE_AREA>  (1) 
95.93999999999998

>  <JCHEM_REFRACTIVITY>  (1) 
115.78779999999999

>  <JCHEM_ROTATABLE_BOND_COUNT>  (1) 
10

>  <JCHEM_RULE_OF_FIVE>  (1) 
1

>  <JCHEM_TRADITIONAL_IUPAC>  (1) 
trandolapril

>  <JCHEM_VEBER_RULE>  (1) 
0

>  <MOLECULAR_WEIGHT>  (1) 
430.5372

>  <PRODUCTS>  (1) 
Mavik; Tarka; Trandolapril; Trandolapril and Verapamil Hydrochloride; Trandolapril and Verapamil Hydrochloride ER

>  <SALTS>  (1) 
Trandolapril hydrochloride

>  <SECONDARY_ACCESSION_NUMBERS>  (1) 
APRD01269

>  <SMILES>  (1) 
[H][C@@]12C[C@H](N(C(=O)[C@H](C)N[C@@H](CCC3=CC=CC=C3)C(=O)OCC)[C@@]1([H])CCCC2)C(O)=O

>  <SYNONYMS>  (1) 
Trandolaprilum

$$$$
