496
     RDKit          2D

 62 66  0  0  1  0  0  0  0  0999 V2000
    3.2716    1.3928    0.0000 O   0  0  0  0  0  0  0  0  0  0  0  0
   10.5908   -1.4435    0.0000 O   0  0  0  0  0  0  0  0  0  0  0  0
    6.2378    0.0455    0.0000 N   0  0  0  0  0  0  0  0  0  0  0  0
    4.3609    1.8109    0.0000 N   0  0  0  0  0  0  0  0  0  0  0  0
    4.9320    0.3230    0.0000 C   0  0  0  0  0  0  0  0  0  0  0  0
    4.1116    0.2368    0.0000 C   0  0  0  0  0  0  0  0  0  0  0  0
    5.3446    1.0375    0.0000 C   0  0  0  0  0  0  0  0  0  0  0  0
    5.4841   -0.2902    0.0000 C   0  0  0  0  0  0  0  0  0  0  0  0
    6.1515    0.8659    0.0000 C   0  0  0  0  0  0  0  0  0  0  0  0
    6.9523   -0.3671    0.0000 C   0  0  0  0  0  0  0  0  0  0  0  0
    3.2910    0.1505    0.0000 C   0  0  0  0  0  0  0  0  0  0  0  0
    4.1978   -0.5838    0.0000 C   0  0  0  0  0  0  0  0  0  0  0  0
    4.0253    1.0573    0.0000 C   0  0  0  0  0  0  0  0  0  0  0  0
    7.6667    0.0455    0.0000 C   0  0  0  0  0  0  0  0  0  0  0  0
    2.8061    0.8179    0.0000 C   0  0  0  0  0  0  0  0  0  0  0  0
    3.5303   -1.0687    0.0000 C   0  0  0  0  0  0  0  0  0  0  0  0
    2.9555   -0.6032    0.0000 C   0  0  0  0  0  0  0  0  0  0  0  0
    4.9514   -0.9193    0.0000 C   0  0  0  0  0  0  0  0  0  0  0  0
    8.3812   -0.3671    0.0000 C   0  0  0  0  0  0  0  0  0  0  0  0
    1.9856    0.7317    0.0000 C   0  0  0  0  0  0  0  0  0  0  0  0
    3.6165   -1.8892    0.0000 C   0  0  0  0  0  0  0  0  0  0  0  0
    2.1350   -0.6894    0.0000 C   0  0  0  0  0  0  0  0  0  0  0  0
    5.0377   -1.7398    0.0000 C   0  0  0  0  0  0  0  0  0  0  0  0
    9.0957    0.0455    0.0000 C   0  0  0  0  0  0  0  0  0  0  0  0
    8.3812   -1.1921    0.0000 C   0  0  0  0  0  0  0  0  0  0  0  0
    1.6500   -0.0219    0.0000 C   0  0  0  0  0  0  0  0  0  0  0  0
    4.3703   -2.2247    0.0000 C   0  0  0  0  0  0  0  0  0  0  0  0
    9.8102   -0.3671    0.0000 C   0  0  0  0  0  0  0  0  0  0  0  0
    9.8102   -1.1921    0.0000 C   0  0  0  0  0  0  0  0  0  0  0  0
   10.5908   -0.1157    0.0000 C   0  0  0  0  0  0  0  0  0  0  0  0
    9.0957   -1.6046    0.0000 C   0  0  0  0  0  0  0  0  0  0  0  0
   11.0723   -0.7796    0.0000 C   0  0  0  0  0  0  0  0  0  0  0  0
    0.0000    0.0000    0.0000 H   0  0  0  0  0  0  0  0  0  0  0  0
    0.0000    0.0000    0.0000 H   0  0  0  0  0  0  0  0  0  0  0  0
    0.0000    0.0000    0.0000 H   0  0  0  0  0  0  0  0  0  0  0  0
    0.0000    0.0000    0.0000 H   0  0  0  0  0  0  0  0  0  0  0  0
    0.0000    0.0000    0.0000 H   0  0  0  0  0  0  0  0  0  0  0  0
    0.0000    0.0000    0.0000 H   0  0  0  0  0  0  0  0  0  0  0  0
    0.0000    0.0000    0.0000 H   0  0  0  0  0  0  0  0  0  0  0  0
    0.0000    0.0000    0.0000 H   0  0  0  0  0  0  0  0  0  0  0  0
    0.0000    0.0000    0.0000 H   0  0  0  0  0  0  0  0  0  0  0  0
    0.0000    0.0000    0.0000 H   0  0  0  0  0  0  0  0  0  0  0  0
    0.0000    0.0000    0.0000 H   0  0  0  0  0  0  0  0  0  0  0  0
    0.0000    0.0000    0.0000 H   0  0  0  0  0  0  0  0  0  0  0  0
    0.0000    0.0000    0.0000 H   0  0  0  0  0  0  0  0  0  0  0  0
    0.0000    0.0000    0.0000 H   0  0  0  0  0  0  0  0  0  0  0  0
    0.0000    0.0000    0.0000 H   0  0  0  0  0  0  0  0  0  0  0  0
    0.0000    0.0000    0.0000 H   0  0  0  0  0  0  0  0  0  0  0  0
    0.0000    0.0000    0.0000 H   0  0  0  0  0  0  0  0  0  0  0  0
    0.0000    0.0000    0.0000 H   0  0  0  0  0  0  0  0  0  0  0  0
    0.0000    0.0000    0.0000 H   0  0  0  0  0  0  0  0  0  0  0  0
    0.0000    0.0000    0.0000 H   0  0  0  0  0  0  0  0  0  0  0  0
    0.0000    0.0000    0.0000 H   0  0  0  0  0  0  0  0  0  0  0  0
    0.0000    0.0000    0.0000 H   0  0  0  0  0  0  0  0  0  0  0  0
    0.0000    0.0000    0.0000 H   0  0  0  0  0  0  0  0  0  0  0  0
    0.0000    0.0000    0.0000 H   0  0  0  0  0  0  0  0  0  0  0  0
    0.0000    0.0000    0.0000 H   0  0  0  0  0  0  0  0  0  0  0  0
    0.0000    0.0000    0.0000 H   0  0  0  0  0  0  0  0  0  0  0  0
    0.0000    0.0000    0.0000 H   0  0  0  0  0  0  0  0  0  0  0  0
    0.0000    0.0000    0.0000 H   0  0  0  0  0  0  0  0  0  0  0  0
    0.0000    0.0000    0.0000 H   0  0  0  0  0  0  0  0  0  0  0  0
    0.0000    0.0000    0.0000 H   0  0  0  0  0  0  0  0  0  0  0  0
  1 13  2  0
  2 29  1  0
  2 32  1  0
  3  8  1  0
  3  9  1  0
  3 10  1  0
  4 13  1  0
  5  6  1  6
  5  7  1  0
  5  8  1  0
  6 11  1  0
  6 12  1  0
  6 13  1  0
  7  9  1  0
 10 14  1  0
 11 15  2  0
 11 17  1  0
 12 16  2  0
 12 18  1  0
 14 19  1  0
 15 20  1  0
 16 21  1  0
 17 22  2  0
 18 23  2  0
 19 24  2  0
 19 25  1  0
 20 26  2  0
 21 27  2  0
 22 26  1  0
 23 27  1  0
 24 28  1  0
 25 31  2  0
 28 29  2  0
 28 30  1  0
 29 31  1  0
 30 32  1  0
  4 33  1  0
  4 34  1  0
  5 35  1  0
  7 36  1  0
  7 37  1  0
  8 38  1  0
  8 39  1  0
  9 40  1  0
  9 41  1  0
 10 42  1  0
 10 43  1  0
 14 44  1  0
 14 45  1  0
 15 46  1  0
 16 47  1  0
 17 48  1  0
 18 49  1  0
 20 50  1  0
 21 51  1  0
 22 52  1  0
 23 53  1  0
 24 54  1  0
 25 55  1  0
 26 56  1  0
 27 57  1  0
 30 58  1  0
 30 59  1  0
 31 60  1  0
 32 61  1  0
 32 62  1  0
M  END
>  <ALOGPS_LOGP>  (1) 
4.35

>  <ALOGPS_LOGS>  (1) 
-6.16

>  <ALOGPS_SOLUBILITY>  (1) 
2.98e-04 g/l

>  <DATABASE_ID>  (1) 
DB00496

>  <DATABASE_NAME>  (1) 
drugbank

>  <DRUGBANK_ID>  (1) 
DB00496

>  <DRUG_GROUPS>  (1) 
approved; investigational

>  <EXACT_MASS>  (1) 
426.230728214

>  <FORMULA>  (1) 
C28H30N2O2

>  <GENERIC_NAME>  (1) 
Darifenacin

>  <INCHI_IDENTIFIER>  (1) 
InChI=1S/C28H30N2O2/c29-27(31)28(23-7-3-1-4-8-23,24-9-5-2-6-10-24)25-14-17-30(20-25)16-13-21-11-12-26-22(19-21)15-18-32-26/h1-12,19,25H,13-18,20H2,(H2,29,31)/t25-/m1/s1

>  <INCHI_KEY>  (1) 
HXGBXQDTNZMWGS-RUZDIDTESA-N

>  <INTERNATIONAL_BRANDS>  (1) 
Emselex; Xelena

>  <JCHEM_ACCEPTOR_COUNT>  (1) 
3

>  <JCHEM_AVERAGE_POLARIZABILITY>  (1) 
48.541763093099924

>  <JCHEM_BIOAVAILABILITY>  (1) 
1

>  <JCHEM_DONOR_COUNT>  (1) 
1

>  <JCHEM_FORMAL_CHARGE>  (1) 
0

>  <JCHEM_GHOSE_FILTER>  (1) 
1

>  <JCHEM_IUPAC>  (1) 
2-[(3S)-1-[2-(2,3-dihydro-1-benzofuran-5-yl)ethyl]pyrrolidin-3-yl]-2,2-diphenylacetamide

>  <JCHEM_LOGP>  (1) 
4.540284133666668

>  <JCHEM_MDDR_LIKE_RULE>  (1) 
1

>  <JCHEM_NUMBER_OF_RINGS>  (1) 
5

>  <JCHEM_PHYSIOLOGICAL_CHARGE>  (1) 
1

>  <JCHEM_PKA_STRONGEST_ACIDIC>  (1) 
16.212146603505996

>  <JCHEM_PKA_STRONGEST_BASIC>  (1) 
10.108034786798411

>  <JCHEM_POLAR_SURFACE_AREA>  (1) 
55.56

>  <JCHEM_REFRACTIVITY>  (1) 
128.37470000000002

>  <JCHEM_ROTATABLE_BOND_COUNT>  (1) 
7

>  <JCHEM_RULE_OF_FIVE>  (1) 
1

>  <JCHEM_TRADITIONAL_IUPAC>  (1) 
darifenacin

>  <JCHEM_VEBER_RULE>  (1) 
0

>  <MOLECULAR_WEIGHT>  (1) 
426.55

>  <PRODUCTS>  (1) 
Apo-darifenacin; Darifenacin; Darifenacin Hydrobromide Extended-Release; Enablex

>  <SALTS>  (1) 
Darifenacin Hydrobromide

>  <SECONDARY_ACCESSION_NUMBERS>  (1) 
APRD00903

>  <SMILES>  (1) 
NC(=O)C([C@@H]1CCN(CCC2=CC3=C(OCC3)C=C2)C1)(C1=CC=CC=C1)C1=CC=CC=C1

>  <SYNONYMS>  (1) 
Darifenacin; Darifenacina; Darif√©nacine; Darifenacinum

$$$$
