
     RDKit          2D

 36 38  0  0  0  0  0  0  0  0999 V2000
   -3.4179    0.7661    0.0000 C   0  0  0  0  0  0  0  0  0  0  0  0
   -4.1323    1.1786    0.0000 C   0  0  0  0  0  0  0  0  0  0  0  0
   -4.8468    0.7661    0.0000 C   0  0  0  0  0  0  0  0  0  0  0  0
   -4.8468   -0.0589    0.0000 C   0  0  0  0  0  0  0  0  0  0  0  0
   -4.1323   -0.4714    0.0000 C   0  0  0  0  0  0  0  0  0  0  0  0
   -3.4179   -0.0589    0.0000 C   0  0  0  0  0  0  0  0  0  0  0  0
   -2.7034   -0.4714    0.0000 S   0  0  0  0  0  0  0  0  0  0  0  0
   -1.9889   -0.0589    0.0000 N   0  0  0  0  0  0  0  0  0  0  0  0
   -1.9889    0.7661    0.0000 C   0  0  0  0  0  0  0  0  0  0  0  0
   -2.7034    1.1786    0.0000 C   0  0  0  0  0  0  0  0  0  0  0  0
   -1.2744    1.1786    0.0000 C   0  0  0  0  0  0  0  0  0  0  0  0
   -1.2744    2.0036    0.0000 N   0  0  0  0  0  0  0  0  0  0  0  0
   -0.5600    2.4161    0.0000 C   0  0  0  0  0  0  0  0  0  0  0  0
    0.1545    3.6536    0.0000 C   0  0  0  0  0  0  0  0  0  0  0  0
   -0.5600    3.2411    0.0000 N   0  0  0  0  0  0  0  0  0  0  0  0
    0.1545    2.0036    0.0000 C   0  0  0  0  0  0  0  0  0  0  0  0
    0.8690    2.4161    0.0000 C   0  0  0  0  0  0  0  0  0  0  0  0
    0.8690    3.2411    0.0000 C   0  0  0  0  0  0  0  0  0  0  0  0
   -1.2744   -0.4714    0.0000 C   0  0  0  0  0  0  0  0  0  0  0  0
   -2.7034    2.0036    0.0000 O   0  0  0  0  0  0  0  0  0  0  0  0
   -0.5599    0.7661    0.0000 O   0  0  0  0  0  0  0  0  0  0  0  0
   -3.2868   -1.0548    0.0000 O   0  0  0  0  0  0  0  0  0  0  0  0
   -2.1200   -1.0548    0.0000 O   0  0  0  0  0  0  0  0  0  0  0  0
    0.0000    0.0000    0.0000 H   0  0  0  0  0  0  0  0  0  0  0  0
    0.0000    0.0000    0.0000 H   0  0  0  0  0  0  0  0  0  0  0  0
    0.0000    0.0000    0.0000 H   0  0  0  0  0  0  0  0  0  0  0  0
    0.0000    0.0000    0.0000 H   0  0  0  0  0  0  0  0  0  0  0  0
    0.0000    0.0000    0.0000 H   0  0  0  0  0  0  0  0  0  0  0  0
    0.0000    0.0000    0.0000 H   0  0  0  0  0  0  0  0  0  0  0  0
    0.0000    0.0000    0.0000 H   0  0  0  0  0  0  0  0  0  0  0  0
    0.0000    0.0000    0.0000 H   0  0  0  0  0  0  0  0  0  0  0  0
    0.0000    0.0000    0.0000 H   0  0  0  0  0  0  0  0  0  0  0  0
    0.0000    0.0000    0.0000 H   0  0  0  0  0  0  0  0  0  0  0  0
    0.0000    0.0000    0.0000 H   0  0  0  0  0  0  0  0  0  0  0  0
    0.0000    0.0000    0.0000 H   0  0  0  0  0  0  0  0  0  0  0  0
    0.0000    0.0000    0.0000 H   0  0  0  0  0  0  0  0  0  0  0  0
  1  2  2  0
  1  6  1  0
  1 10  1  0
  2  3  1  0
  3  4  2  0
  4  5  1  0
  5  6  2  0
  6  7  1  0
  7  8  1  0
  8  9  1  0
  9 10  2  0
  9 11  1  0
 11 12  1  0
 12 13  1  0
 15 13  1  0
 13 16  2  0
 14 15  2  0
 14 18  1  0
 16 17  1  0
 17 18  2  0
  8 19  1  0
 10 20  1  0
 11 21  2  0
  7 22  2  0
  7 23  2  0
  2 24  1  0
  3 25  1  0
  4 26  1  0
  5 27  1  0
 12 28  1  0
 14 29  1  0
 16 30  1  0
 17 31  1  0
 18 32  1  0
 19 33  1  0
 19 34  1  0
 19 35  1  0
 20 36  1  0
M  END
>  <ALOGPS_LOGP>  (1) 
2.20

>  <ALOGPS_LOGS>  (1) 
-3.37

>  <ALOGPS_SOLUBILITY>  (1) 
1.43e-01 g/l

>  <DATABASE_ID>  (1) 
DB00554

>  <DATABASE_NAME>  (1) 
drugbank

>  <DRUGBANK_ID>  (1) 
DB00554

>  <DRUG_GROUPS>  (1) 
approved; investigational

>  <EXACT_MASS>  (1) 
331.062676609

>  <FORMULA>  (1) 
C15H13N3O4S

>  <GENERIC_NAME>  (1) 
Piroxicam

>  <INCHI_IDENTIFIER>  (1) 
InChI=1S/C15H13N3O4S/c1-18-13(15(20)17-12-8-4-5-9-16-12)14(19)10-6-2-3-7-11(10)23(18,21)22/h2-9,19H,1H3,(H,16,17,20)

>  <INCHI_KEY>  (1) 
QYSPLQLAKJAUJT-UHFFFAOYSA-N

>  <INTERNATIONAL_BRANDS>  (1) 
Bruxicam; Dolonex; Erazon; Geldène; Improntal; Roxam; Roxiden; Sasulen; Solocalm; Trast

>  <JCHEM_ACCEPTOR_COUNT>  (1) 
5

>  <JCHEM_AVERAGE_POLARIZABILITY>  (1) 
32.27132005937933

>  <JCHEM_BIOAVAILABILITY>  (1) 
1

>  <JCHEM_DONOR_COUNT>  (1) 
2

>  <JCHEM_FORMAL_CHARGE>  (1) 
0

>  <JCHEM_GHOSE_FILTER>  (1) 
1

>  <JCHEM_IUPAC>  (1) 
4-hydroxy-2-methyl-1,1-dioxo-N-(pyridin-2-yl)-2H-1λ⁶,2-benzothiazine-3-carboxamide

>  <JCHEM_LOGP>  (1) 
0.5998838320211013

>  <JCHEM_MDDR_LIKE_RULE>  (1) 
0

>  <JCHEM_NUMBER_OF_RINGS>  (1) 
3

>  <JCHEM_PHYSIOLOGICAL_CHARGE>  (1) 
-1

>  <JCHEM_PKA>  (1) 
11.734046266182963

>  <JCHEM_PKA_STRONGEST_ACIDIC>  (1) 
4.760423459469111

>  <JCHEM_PKA_STRONGEST_BASIC>  (1) 
3.792497901770875

>  <JCHEM_POLAR_SURFACE_AREA>  (1) 
99.6

>  <JCHEM_REFRACTIVITY>  (1) 
87.0435

>  <JCHEM_ROTATABLE_BOND_COUNT>  (1) 
2

>  <JCHEM_RULE_OF_FIVE>  (1) 
1

>  <JCHEM_TRADITIONAL_IUPAC>  (1) 
piroxicam

>  <JCHEM_VEBER_RULE>  (1) 
0

>  <MOLECULAR_WEIGHT>  (1) 
331.346

>  <PRODUCTS>  (1) 
Alti-piroxicam-cap 10mg; Alti-piroxicam-cap 20mg; Apo Piroxicam Cap 10mg; Apo Piroxicam Cap 20mg; Dom-piroxicam; Feldene; Feldene Cap 10mg; Feldene Cap 20mg; Feldene Sup 10mg; Feldene Sup 20mg; Fexicam; Gen-piroxicam - Cap 20mg; Gen-piroxicam-cap 10mg; Nu-pirox Cap 10mg; Nu-pirox Cap 20mg; PMS-piroxicam; PMS-piroxicam Suppositories -20mg; PMS-piroxicam Suppositories-10mg; Penta-piroxicam Capsules; Piroxicam; Piroxicam Capsules 10mg; Piroxicam Capsules 20mg; Pro-piroxicam Cap 10mg; Pro-piroxicam Cap 20mg; Rho-piroxicam - 10mg Cap; Rho-piroxicam - Cap 20mg; Teva-piroxicam; Therafeldamine

>  <SECONDARY_ACCESSION_NUMBERS>  (1) 
APRD01187

>  <SMILES>  (1) 
CN1C(C(=O)NC2=NC=CC=C2)=C(O)C2=C(C=CC=C2)S1(=O)=O

>  <SYNONYMS>  (1) 
Piroxicam betadex; Pyroxycam

$$$$
