
     RDKit          2D

179179  0  0  0  0  0  0  0  0999 V2000
   -8.0321    1.1628    0.0000 C   0  0  0  0  0  0  0  0  0  0  0  0
    4.3020    3.3597    0.0000 C   0  0  0  0  0  0  0  0  0  0  0  0
    5.4581    4.1996    0.0000 C   0  0  0  0  0  0  0  0  0  0  0  0
    2.6611    3.1872    0.0000 C   0  0  0  0  0  0  0  0  0  0  0  0
    3.9665    2.6060    0.0000 C   0  0  0  0  0  0  0  0  0  0  0  0
   -6.6031    1.9878    0.0000 C   0  0  0  0  0  0  0  0  0  0  0  0
    2.5875   -4.0045    0.0000 C   0  0  0  0  0  0  0  0  0  0  0  0
   -3.0308   -4.1996    0.0000 C   0  0  0  0  0  0  0  0  0  0  0  0
   -7.3176    0.7503    0.0000 C   0  0  0  0  0  0  0  0  0  0  0  0
   -5.1742    1.1628    0.0000 C   0  0  0  0  0  0  0  0  0  0  0  0
   -5.8887    0.7503    0.0000 C   0  0  0  0  0  0  0  0  0  0  0  0
   -4.4597    0.7503    0.0000 C   0  0  0  0  0  0  0  0  0  0  0  0
   -5.8887   -1.7246    0.0000 C   0  0  0  0  0  0  0  0  0  0  0  0
    6.7267    0.0225    0.0000 C   0  0  0  0  0  0  0  0  0  0  0  0
    1.3189    0.1725    0.0000 C   0  0  0  0  0  0  0  0  0  0  0  0
   -0.8874   -2.9621    0.0000 C   0  0  0  0  0  0  0  0  0  0  0  0
    4.8995   -2.3246    0.0000 C   0  0  0  0  0  0  0  0  0  0  0  0
   -0.0867   -2.5451    0.0000 C   0  0  0  0  0  0  0  0  0  0  0  0
   -6.6031   -1.3121    0.0000 C   0  0  0  0  0  0  0  0  0  0  0  0
    7.2116   -0.6448    0.0000 C   0  0  0  0  0  0  0  0  0  0  0  0
    0.4984    0.0863    0.0000 C   0  0  0  0  0  0  0  0  0  0  0  0
   -0.8874   -3.7871    0.0000 C   0  0  0  0  0  0  0  0  0  0  0  0
    5.7200   -2.2384    0.0000 C   0  0  0  0  0  0  0  0  0  0  0  0
    0.7202   -2.7166    0.0000 C   0  0  0  0  0  0  0  0  0  0  0  0
    5.6074    2.7785    0.0000 C   0  0  0  0  0  0  0  0  0  0  0  0
    2.8105    1.7661    0.0000 C   0  0  0  0  0  0  0  0  0  0  0  0
    5.1225    3.4460    0.0000 C   0  0  0  0  0  0  0  0  0  0  0  0
    3.1460    2.5198    0.0000 C   0  0  0  0  0  0  0  0  0  0  0  0
   -6.6031    1.1628    0.0000 C   0  0  0  0  0  0  0  0  0  0  0  0
    2.9230   -3.2508    0.0000 C   0  0  0  0  0  0  0  0  0  0  0  0
   -3.7453   -3.7871    0.0000 C   0  0  0  0  0  0  0  0  0  0  0  0
   -5.1742   -1.3121    0.0000 C   0  0  0  0  0  0  0  0  0  0  0  0
    5.9062   -0.0636    0.0000 C   0  0  0  0  0  0  0  0  0  0  0  0
    1.8038   -0.4948    0.0000 C   0  0  0  0  0  0  0  0  0  0  0  0
   -1.6019   -2.5496    0.0000 C   0  0  0  0  0  0  0  0  0  0  0  0
    4.4146   -1.6572    0.0000 C   0  0  0  0  0  0  0  0  0  0  0  0
   -0.1729   -1.7246    0.0000 C   0  0  0  0  0  0  0  0  0  0  0  0
    5.2719    2.0249    0.0000 C   0  0  0  0  0  0  0  0  0  0  0  0
    3.2954    1.0987    0.0000 C   0  0  0  0  0  0  0  0  0  0  0  0
   -4.4597   -0.0746    0.0000 C   0  0  0  0  0  0  0  0  0  0  0  0
    2.4381   -2.5834    0.0000 C   0  0  0  0  0  0  0  0  0  0  0  0
   -3.7453   -2.9621    0.0000 C   0  0  0  0  0  0  0  0  0  0  0  0
    5.5707   -0.8173    0.0000 C   0  0  0  0  0  0  0  0  0  0  0  0
   -1.6019   -1.7246    0.0000 C   0  0  0  0  0  0  0  0  0  0  0  0
    2.1394    0.2588    0.0000 C   0  0  0  0  0  0  0  0  0  0  0  0
    0.5807   -1.3891    0.0000 C   0  0  0  0  0  0  0  0  0  0  0  0
   -4.4597   -1.7246    0.0000 C   0  0  0  0  0  0  0  0  0  0  0  0
    3.5941   -1.7434    0.0000 C   0  0  0  0  0  0  0  0  0  0  0  0
    5.7568    1.3574    0.0000 C   0  0  0  0  0  0  0  0  0  0  0  0
    4.1159    1.1849    0.0000 C   0  0  0  0  0  0  0  0  0  0  0  0
    2.1026   -3.3370    0.0000 C   0  0  0  0  0  0  0  0  0  0  0  0
   -3.0308   -2.5496    0.0000 C   0  0  0  0  0  0  0  0  0  0  0  0
   -7.3176   -1.7246    0.0000 N   0  0  0  0  0  0  0  0  0  0  0  0
    8.0321   -0.5585    0.0000 N   0  0  0  0  0  0  0  0  0  0  0  0
    0.0135    0.7537    0.0000 N   0  0  0  0  0  0  0  0  0  0  0  0
   -0.1729   -4.1996    0.0000 N   0  0  0  0  0  0  0  0  0  0  0  0
    6.2050   -2.9058    0.0000 N   0  0  0  0  0  0  0  0  0  0  0  0
    1.2821   -3.4233    0.0000 N   0  0  0  0  0  0  0  0  0  0  0  0
   -5.1742   -0.4871    0.0000 N   0  0  0  0  0  0  0  0  0  0  0  0
    0.9833   -0.5811    0.0000 N   0  0  0  0  0  0  0  0  0  0  0  0
    4.7502   -0.9035    0.0000 N   0  0  0  0  0  0  0  0  0  0  0  0
    5.4213    0.6037    0.0000 N   0  0  0  0  0  0  0  0  0  0  0  0
   -0.8874   -1.3121    0.0000 N   0  0  0  0  0  0  0  0  0  0  0  0
   -2.3163   -2.9621    0.0000 N   0  0  0  0  0  0  0  0  0  0  0  0
    2.9598    0.3450    0.0000 N   0  0  0  0  0  0  0  0  0  0  0  0
    4.4514    1.9386    0.0000 N   0  0  0  0  0  0  0  0  0  0  0  0
    3.2586   -2.4971    0.0000 N   0  0  0  0  0  0  0  0  0  0  0  0
   -4.4597   -2.5496    0.0000 N   0  0  0  0  0  0  0  0  0  0  0  0
    3.7435   -3.1646    0.0000 O   0  0  0  0  0  0  0  0  0  0  0  0
   -4.4597   -4.1996    0.0000 O   0  0  0  0  0  0  0  0  0  0  0  0
   -3.7453   -0.4871    0.0000 O   0  0  0  0  0  0  0  0  0  0  0  0
    6.0556   -1.4847    0.0000 O   0  0  0  0  0  0  0  0  0  0  0  0
   -2.3163   -1.3121    0.0000 O   0  0  0  0  0  0  0  0  0  0  0  0
    1.6544    0.9262    0.0000 O   0  0  0  0  0  0  0  0  0  0  0  0
    1.1512   -1.9850    0.0000 O   0  0  0  0  0  0  0  0  0  0  0  0
   -3.7453   -1.3121    0.0000 O   0  0  0  0  0  0  0  0  0  0  0  0
    3.1092   -1.0760    0.0000 O   0  0  0  0  0  0  0  0  0  0  0  0
    6.5773    1.4437    0.0000 O   0  0  0  0  0  0  0  0  0  0  0  0
    4.6008    0.5175    0.0000 O   0  0  0  0  0  0  0  0  0  0  0  0
    2.1026   -4.1620    0.0000 O   0  0  0  0  0  0  0  0  0  0  0  0
   -3.0308   -1.7246    0.0000 O   0  0  0  0  0  0  0  0  0  0  0  0
    0.0000    0.0000    0.0000 H   0  0  0  0  0  0  0  0  0  0  0  0
    0.0000    0.0000    0.0000 H   0  0  0  0  0  0  0  0  0  0  0  0
    0.0000    0.0000    0.0000 H   0  0  0  0  0  0  0  0  0  0  0  0
    0.0000    0.0000    0.0000 H   0  0  0  0  0  0  0  0  0  0  0  0
    0.0000    0.0000    0.0000 H   0  0  0  0  0  0  0  0  0  0  0  0
    0.0000    0.0000    0.0000 H   0  0  0  0  0  0  0  0  0  0  0  0
    0.0000    0.0000    0.0000 H   0  0  0  0  0  0  0  0  0  0  0  0
    0.0000    0.0000    0.0000 H   0  0  0  0  0  0  0  0  0  0  0  0
    0.0000    0.0000    0.0000 H   0  0  0  0  0  0  0  0  0  0  0  0
    0.0000    0.0000    0.0000 H   0  0  0  0  0  0  0  0  0  0  0  0
    0.0000    0.0000    0.0000 H   0  0  0  0  0  0  0  0  0  0  0  0
    0.0000    0.0000    0.0000 H   0  0  0  0  0  0  0  0  0  0  0  0
    0.0000    0.0000    0.0000 H   0  0  0  0  0  0  0  0  0  0  0  0
    0.0000    0.0000    0.0000 H   0  0  0  0  0  0  0  0  0  0  0  0
    0.0000    0.0000    0.0000 H   0  0  0  0  0  0  0  0  0  0  0  0
    0.0000    0.0000    0.0000 H   0  0  0  0  0  0  0  0  0  0  0  0
    0.0000    0.0000    0.0000 H   0  0  0  0  0  0  0  0  0  0  0  0
    0.0000    0.0000    0.0000 H   0  0  0  0  0  0  0  0  0  0  0  0
    0.0000    0.0000    0.0000 H   0  0  0  0  0  0  0  0  0  0  0  0
    0.0000    0.0000    0.0000 H   0  0  0  0  0  0  0  0  0  0  0  0
    0.0000    0.0000    0.0000 H   0  0  0  0  0  0  0  0  0  0  0  0
    0.0000    0.0000    0.0000 H   0  0  0  0  0  0  0  0  0  0  0  0
    0.0000    0.0000    0.0000 H   0  0  0  0  0  0  0  0  0  0  0  0
    0.0000    0.0000    0.0000 H   0  0  0  0  0  0  0  0  0  0  0  0
    0.0000    0.0000    0.0000 H   0  0  0  0  0  0  0  0  0  0  0  0
    0.0000    0.0000    0.0000 H   0  0  0  0  0  0  0  0  0  0  0  0
    0.0000    0.0000    0.0000 H   0  0  0  0  0  0  0  0  0  0  0  0
    0.0000    0.0000    0.0000 H   0  0  0  0  0  0  0  0  0  0  0  0
    0.0000    0.0000    0.0000 H   0  0  0  0  0  0  0  0  0  0  0  0
    0.0000    0.0000    0.0000 H   0  0  0  0  0  0  0  0  0  0  0  0
    0.0000    0.0000    0.0000 H   0  0  0  0  0  0  0  0  0  0  0  0
    0.0000    0.0000    0.0000 H   0  0  0  0  0  0  0  0  0  0  0  0
    0.0000    0.0000    0.0000 H   0  0  0  0  0  0  0  0  0  0  0  0
    0.0000    0.0000    0.0000 H   0  0  0  0  0  0  0  0  0  0  0  0
    0.0000    0.0000    0.0000 H   0  0  0  0  0  0  0  0  0  0  0  0
    0.0000    0.0000    0.0000 H   0  0  0  0  0  0  0  0  0  0  0  0
    0.0000    0.0000    0.0000 H   0  0  0  0  0  0  0  0  0  0  0  0
    0.0000    0.0000    0.0000 H   0  0  0  0  0  0  0  0  0  0  0  0
    0.0000    0.0000    0.0000 H   0  0  0  0  0  0  0  0  0  0  0  0
    0.0000    0.0000    0.0000 H   0  0  0  0  0  0  0  0  0  0  0  0
    0.0000    0.0000    0.0000 H   0  0  0  0  0  0  0  0  0  0  0  0
    0.0000    0.0000    0.0000 H   0  0  0  0  0  0  0  0  0  0  0  0
    0.0000    0.0000    0.0000 H   0  0  0  0  0  0  0  0  0  0  0  0
    0.0000    0.0000    0.0000 H   0  0  0  0  0  0  0  0  0  0  0  0
    0.0000    0.0000    0.0000 H   0  0  0  0  0  0  0  0  0  0  0  0
    0.0000    0.0000    0.0000 H   0  0  0  0  0  0  0  0  0  0  0  0
    0.0000    0.0000    0.0000 H   0  0  0  0  0  0  0  0  0  0  0  0
    0.0000    0.0000    0.0000 H   0  0  0  0  0  0  0  0  0  0  0  0
    0.0000    0.0000    0.0000 H   0  0  0  0  0  0  0  0  0  0  0  0
    0.0000    0.0000    0.0000 H   0  0  0  0  0  0  0  0  0  0  0  0
    0.0000    0.0000    0.0000 H   0  0  0  0  0  0  0  0  0  0  0  0
    0.0000    0.0000    0.0000 H   0  0  0  0  0  0  0  0  0  0  0  0
    0.0000    0.0000    0.0000 H   0  0  0  0  0  0  0  0  0  0  0  0
    0.0000    0.0000    0.0000 H   0  0  0  0  0  0  0  0  0  0  0  0
    0.0000    0.0000    0.0000 H   0  0  0  0  0  0  0  0  0  0  0  0
    0.0000    0.0000    0.0000 H   0  0  0  0  0  0  0  0  0  0  0  0
    0.0000    0.0000    0.0000 H   0  0  0  0  0  0  0  0  0  0  0  0
    0.0000    0.0000    0.0000 H   0  0  0  0  0  0  0  0  0  0  0  0
    0.0000    0.0000    0.0000 H   0  0  0  0  0  0  0  0  0  0  0  0
    0.0000    0.0000    0.0000 H   0  0  0  0  0  0  0  0  0  0  0  0
    0.0000    0.0000    0.0000 H   0  0  0  0  0  0  0  0  0  0  0  0
    0.0000    0.0000    0.0000 H   0  0  0  0  0  0  0  0  0  0  0  0
    0.0000    0.0000    0.0000 H   0  0  0  0  0  0  0  0  0  0  0  0
    0.0000    0.0000    0.0000 H   0  0  0  0  0  0  0  0  0  0  0  0
    0.0000    0.0000    0.0000 H   0  0  0  0  0  0  0  0  0  0  0  0
    0.0000    0.0000    0.0000 H   0  0  0  0  0  0  0  0  0  0  0  0
    0.0000    0.0000    0.0000 H   0  0  0  0  0  0  0  0  0  0  0  0
    0.0000    0.0000    0.0000 H   0  0  0  0  0  0  0  0  0  0  0  0
    0.0000    0.0000    0.0000 H   0  0  0  0  0  0  0  0  0  0  0  0
    0.0000    0.0000    0.0000 H   0  0  0  0  0  0  0  0  0  0  0  0
    0.0000    0.0000    0.0000 H   0  0  0  0  0  0  0  0  0  0  0  0
    0.0000    0.0000    0.0000 H   0  0  0  0  0  0  0  0  0  0  0  0
    0.0000    0.0000    0.0000 H   0  0  0  0  0  0  0  0  0  0  0  0
    0.0000    0.0000    0.0000 H   0  0  0  0  0  0  0  0  0  0  0  0
    0.0000    0.0000    0.0000 H   0  0  0  0  0  0  0  0  0  0  0  0
    0.0000    0.0000    0.0000 H   0  0  0  0  0  0  0  0  0  0  0  0
    0.0000    0.0000    0.0000 H   0  0  0  0  0  0  0  0  0  0  0  0
    0.0000    0.0000    0.0000 H   0  0  0  0  0  0  0  0  0  0  0  0
    0.0000    0.0000    0.0000 H   0  0  0  0  0  0  0  0  0  0  0  0
    0.0000    0.0000    0.0000 H   0  0  0  0  0  0  0  0  0  0  0  0
    0.0000    0.0000    0.0000 H   0  0  0  0  0  0  0  0  0  0  0  0
    0.0000    0.0000    0.0000 H   0  0  0  0  0  0  0  0  0  0  0  0
    0.0000    0.0000    0.0000 H   0  0  0  0  0  0  0  0  0  0  0  0
    0.0000    0.0000    0.0000 H   0  0  0  0  0  0  0  0  0  0  0  0
    0.0000    0.0000    0.0000 H   0  0  0  0  0  0  0  0  0  0  0  0
    0.0000    0.0000    0.0000 H   0  0  0  0  0  0  0  0  0  0  0  0
    0.0000    0.0000    0.0000 H   0  0  0  0  0  0  0  0  0  0  0  0
    0.0000    0.0000    0.0000 H   0  0  0  0  0  0  0  0  0  0  0  0
    0.0000    0.0000    0.0000 H   0  0  0  0  0  0  0  0  0  0  0  0
    0.0000    0.0000    0.0000 H   0  0  0  0  0  0  0  0  0  0  0  0
    0.0000    0.0000    0.0000 H   0  0  0  0  0  0  0  0  0  0  0  0
    0.0000    0.0000    0.0000 H   0  0  0  0  0  0  0  0  0  0  0  0
    0.0000    0.0000    0.0000 H   0  0  0  0  0  0  0  0  0  0  0  0
    0.0000    0.0000    0.0000 H   0  0  0  0  0  0  0  0  0  0  0  0
    0.0000    0.0000    0.0000 H   0  0  0  0  0  0  0  0  0  0  0  0
    0.0000    0.0000    0.0000 H   0  0  0  0  0  0  0  0  0  0  0  0
    0.0000    0.0000    0.0000 H   0  0  0  0  0  0  0  0  0  0  0  0
    0.0000    0.0000    0.0000 H   0  0  0  0  0  0  0  0  0  0  0  0
  9  1  1  0
 11 10  1  0
 12 10  1  0
 19 13  1  0
 20 14  1  0
 21 15  1  0
 22 16  1  0
 23 17  1  0
 24 18  1  0
 27  2  1  0
 27  3  1  0
 27 25  1  0
 28  4  1  0
 28  5  1  0
 28 26  1  0
 29  6  1  0
 29  9  1  0
 29 11  1  0
 30  7  1  6
 31  8  1  1
 32 13  1  1
 33 14  1  6
 34 15  1  1
 35 16  1  6
 36 17  1  1
 37 18  1  0
 38 25  1  1
 39 26  1  0
 40 12  1  0
 41 30  1  0
 42 31  1  0
 43 33  1  0
 44 35  1  0
 45 34  1  0
 46 37  1  0
 47 32  1  0
 48 36  1  0
 49 38  1  0
 50 39  1  0
 51 41  1  0
 42 52  1  6
 53 19  1  0
 54 20  1  0
 55 21  1  0
 56 22  1  0
 57 23  1  0
 58 24  1  0
 58 51  2  0
 32 59  1  0
 59 40  2  3
 60 34  1  0
 60 46  2  0
 61 36  1  0
 61 43  2  0
 62 33  1  0
 62 49  2  0
 37 63  1  6
 63 44  2  3
 35 64  1  0
 64 52  2  3
 65 39  1  0
 65 45  2  0
 66 38  1  0
 66 50  2  0
 67 41  1  0
 67 48  2  0
 42 68  1  0
 68 47  2  3
 30 69  1  0
 31 70  1  0
 40 71  1  0
 43 72  1  0
 44 73  1  0
 74 45  1  0
 46 75  1  0
 47 76  1  0
 77 48  1  0
 49 78  1  0
 50 79  1  0
 80 51  1  0
 52 81  1  0
  1 82  1  0
  1 83  1  0
  1 84  1  0
  2 85  1  0
  2 86  1  0
  2 87  1  0
  3 88  1  0
  3 89  1  0
  3 90  1  0
  4 91  1  0
  4 92  1  0
  4 93  1  0
  5 94  1  0
  5 95  1  0
  5 96  1  0
  6 97  1  0
  6 98  1  0
  6 99  1  0
  7100  1  0
  7101  1  0
  7102  1  0
  8103  1  0
  8104  1  0
  8105  1  0
  9106  1  0
  9107  1  0
 10108  1  0
 10109  1  0
 11110  1  0
 11111  1  0
 12112  1  0
 12113  1  0
 13114  1  0
 13115  1  0
 14116  1  0
 14117  1  0
 15118  1  0
 15119  1  0
 16120  1  0
 16121  1  0
 17122  1  0
 17123  1  0
 18124  1  0
 18125  1  0
 19126  1  0
 19127  1  0
 20128  1  0
 20129  1  0
 21130  1  0
 21131  1  0
 22132  1  0
 22133  1  0
 23134  1  0
 23135  1  0
 24136  1  0
 24137  1  0
 25138  1  0
 25139  1  0
 26140  1  0
 26141  1  0
 27142  1  0
 28143  1  0
 29144  1  0
 30145  1  0
 31146  1  0
 32147  1  0
 33148  1  0
 34149  1  0
 35150  1  0
 36151  1  0
 37152  1  0
 38153  1  0
 39154  1  0
 41155  1  0
 42156  1  0
 53157  1  0
 53158  1  0
 54159  1  0
 54160  1  0
 55161  1  0
 55162  1  0
 56163  1  0
 56164  1  0
 57165  1  0
 57166  1  0
 69167  1  0
 70168  1  0
 71169  1  0
 72170  1  0
 73171  1  0
 74172  1  0
 75173  1  0
 76174  1  0
 77175  1  0
 78176  1  0
 79177  1  0
 80178  1  0
 81179  1  0
M  END
>  <ALOGPS_LOGP>  (1) 
0.22

>  <ALOGPS_LOGS>  (1) 
-4.16

>  <ALOGPS_SOLUBILITY>  (1) 
7.99e-02 g/l

>  <DATABASE_ID>  (1) 
DB00803

>  <DATABASE_NAME>  (1) 
drugbank

>  <DRUGBANK_ID>  (1) 
DB00803

>  <DRUG_GROUPS>  (1) 
approved

>  <EXACT_MASS>  (1) 
1154.74992728

>  <FORMULA>  (1) 
C52H98N16O13

>  <GENERIC_NAME>  (1) 
Colistin

>  <INCHI_IDENTIFIER>  (1) 
InChI=1S/C52H98N16O13/c1-9-29(6)11-10-12-40(71)59-32(13-19-53)47(76)68-42(31(8)70)52(81)64-35(16-22-56)44(73)63-37-18-24-58-51(80)41(30(7)69)67-48(77)36(17-23-57)61-43(72)33(14-20-54)62-49(78)38(25-27(2)3)66-50(79)39(26-28(4)5)65-45(74)34(15-21-55)60-46(37)75/h27-39,41-42,69-70H,9-26,53-57H2,1-8H3,(H,58,80)(H,59,71)(H,60,75)(H,61,72)(H,62,78)(H,63,73)(H,64,81)(H,65,74)(H,66,79)(H,67,77)(H,68,76)/t29?,30-,31-,32+,33+,34+,35+,36-,37+,38-,39?,41?,42+/m1/s1

>  <INCHI_KEY>  (1) 
YKQOSKADJPQZHB-BRLOSWAASA-N

>  <INTERNATIONAL_BRANDS>  (1) 
Alfacolin; Alficetin; ColiFin; Colimicina; Colimycine; Coliracin; Colistate; Colomycin; Coly-Mycin; Diarönt mono; Promixin; Tadim; Walamycin

>  <JCHEM_ACCEPTOR_COUNT>  (1) 
29

>  <JCHEM_ATOM_COUNT>  (1) 
179

>  <JCHEM_AVERAGE_POLARIZABILITY>  (1) 
0.0

>  <JCHEM_BIOAVAILABILITY>  (1) 
0

>  <JCHEM_DONOR_COUNT>  (1) 
18

>  <JCHEM_FORMAL_CHARGE>  (1) 
0

>  <JCHEM_GHOSE_FILTER>  (1) 
0

>  <JCHEM_IUPAC>  (1) 
N-[(1S)-3-amino-1-{[(1S,2R)-1-{[(1S)-3-amino-1-{[(6R,9S,12R,18S,21S)-6,9,18-tris(2-aminoethyl)-2,5,8,11,14,17,20-heptahydroxy-3-[(1R)-1-hydroxyethyl]-12,15-bis(2-methylpropyl)-1,4,7,10,13,16,19-heptaazacyclotricosa-1,4,7,10,13,16,19-heptaen-21-yl]-C-hydroxycarbonimidoyl}propyl]-C-hydroxycarbonimidoyl}-2-hydroxypropyl]-C-hydroxycarbonimidoyl}propyl]-5-methylheptanimidic acid

>  <JCHEM_LOGP>  (1) 
0.9196899126666687

>  <JCHEM_MDDR_LIKE_RULE>  (1) 
0

>  <JCHEM_NUMBER_OF_RINGS>  (1) 
1

>  <JCHEM_PHYSIOLOGICAL_CHARGE>  (1) 
5

>  <JCHEM_PKA>  (1) 
3.113385519402138

>  <JCHEM_PKA_STRONGEST_ACIDIC>  (1) 
2.688459609521163

>  <JCHEM_POLAR_SURFACE_AREA>  (1) 
529.0500000000003

>  <JCHEM_REFRACTIVITY>  (1) 
303.40779999999984

>  <JCHEM_ROTATABLE_BOND_COUNT>  (1) 
28

>  <JCHEM_RULE_OF_FIVE>  (1) 
0

>  <JCHEM_TRADITIONAL_IUPAC>  (1) 
N-[(1S)-3-amino-1-{[(1S,2R)-1-{[(1S)-3-amino-1-{[(6R,9S,12R,18S,21S)-6,9,18-tris(2-aminoethyl)-2,5,8,11,14,17,20-heptahydroxy-3-[(1R)-1-hydroxyethyl]-12,15-bis(2-methylpropyl)-1,4,7,10,13,16,19-heptaazacyclotricosa-1,4,7,10,13,16,19-heptaen-21-yl]-C-hydroxycarbonimidoyl}propyl]-C-hydroxycarbonimidoyl}-2-hydroxypropyl]-C-hydroxycarbonimidoyl}propyl]-5-methylheptanimidic acid

>  <JCHEM_VEBER_RULE>  (1) 
0

>  <MOLECULAR_WEIGHT>  (1) 
1155.455

>  <PRODUCTS>  (1) 
Colistimethate for Injection; Colistimethate for Injection U.S.P.; Coly-Mycin S; Coly-mycin M Parenteral; Cortisporin-TC

>  <SALTS>  (1) 
Colistin sulfate

>  <SECONDARY_ACCESSION_NUMBERS>  (1) 
APRD00886

>  <SMILES>  (1) 
[H]C(C)(CC)CCCC(O)=N[C@@]([H])(CCN)C(O)=N[C@]([H])(C(O)=N[C@@]([H])(CCN)C(O)=N[C@@]1([H])CCN=C(O)C([H])(N=C(O)[C@@]([H])(CCN)N=C(O)[C@]([H])(CCN)N=C(O)[C@@]([H])(CC(C)C)N=C(O)C([H])(CC(C)C)N=C(O)[C@]([H])(CCN)N=C1O)[C@@]([H])(C)O)[C@@]([H])(C)O

>  <SYNONYMS>  (1) 
Colistin; Colistina; Colistine; Colistinum; Polymyxin E

$$$$
