750
     RDKit          2D

 36 36  0  0  1  0  0  0  0  0999 V2000
    4.5080   -0.6188    0.0000 O   0  0  0  0  0  0  0  0  0  0  0  0
    4.5080    1.0313    0.0000 N   0  0  0  0  0  0  0  0  0  0  0  0
    3.0791   -0.6188    0.0000 N   0  0  0  0  0  0  0  0  0  0  0  0
    3.7935    0.6188    0.0000 C   0  0  0  0  0  0  0  0  0  0  0  0
    4.5080    1.8563    0.0000 C   0  0  0  0  0  0  0  0  0  0  0  0
    5.2224    2.2688    0.0000 C   0  0  0  0  0  0  0  0  0  0  0  0
    3.7935   -0.2063    0.0000 C   0  0  0  0  0  0  0  0  0  0  0  0
    3.0791    1.0313    0.0000 C   0  0  0  0  0  0  0  0  0  0  0  0
    3.0791   -1.4438    0.0000 C   0  0  0  0  0  0  0  0  0  0  0  0
    2.3645   -1.8563    0.0000 C   0  0  0  0  0  0  0  0  0  0  0  0
    5.2224    3.0938    0.0000 C   0  0  0  0  0  0  0  0  0  0  0  0
    3.7935   -1.8563    0.0000 C   0  0  0  0  0  0  0  0  0  0  0  0
    2.3645   -2.6813    0.0000 C   0  0  0  0  0  0  0  0  0  0  0  0
    1.6500   -1.4438    0.0000 C   0  0  0  0  0  0  0  0  0  0  0  0
    3.7935   -2.6813    0.0000 C   0  0  0  0  0  0  0  0  0  0  0  0
    3.0791   -3.0938    0.0000 C   0  0  0  0  0  0  0  0  0  0  0  0
    0.0000    0.0000    0.0000 H   0  0  0  0  0  0  0  0  0  0  0  0
    0.0000    0.0000    0.0000 H   0  0  0  0  0  0  0  0  0  0  0  0
    0.0000    0.0000    0.0000 H   0  0  0  0  0  0  0  0  0  0  0  0
    0.0000    0.0000    0.0000 H   0  0  0  0  0  0  0  0  0  0  0  0
    0.0000    0.0000    0.0000 H   0  0  0  0  0  0  0  0  0  0  0  0
    0.0000    0.0000    0.0000 H   0  0  0  0  0  0  0  0  0  0  0  0
    0.0000    0.0000    0.0000 H   0  0  0  0  0  0  0  0  0  0  0  0
    0.0000    0.0000    0.0000 H   0  0  0  0  0  0  0  0  0  0  0  0
    0.0000    0.0000    0.0000 H   0  0  0  0  0  0  0  0  0  0  0  0
    0.0000    0.0000    0.0000 H   0  0  0  0  0  0  0  0  0  0  0  0
    0.0000    0.0000    0.0000 H   0  0  0  0  0  0  0  0  0  0  0  0
    0.0000    0.0000    0.0000 H   0  0  0  0  0  0  0  0  0  0  0  0
    0.0000    0.0000    0.0000 H   0  0  0  0  0  0  0  0  0  0  0  0
    0.0000    0.0000    0.0000 H   0  0  0  0  0  0  0  0  0  0  0  0
    0.0000    0.0000    0.0000 H   0  0  0  0  0  0  0  0  0  0  0  0
    0.0000    0.0000    0.0000 H   0  0  0  0  0  0  0  0  0  0  0  0
    0.0000    0.0000    0.0000 H   0  0  0  0  0  0  0  0  0  0  0  0
    0.0000    0.0000    0.0000 H   0  0  0  0  0  0  0  0  0  0  0  0
    0.0000    0.0000    0.0000 H   0  0  0  0  0  0  0  0  0  0  0  0
    0.0000    0.0000    0.0000 H   0  0  0  0  0  0  0  0  0  0  0  0
  1  7  2  0
  2  4  1  0
  2  5  1  0
  3  7  1  0
  3  9  1  0
  4  7  1  0
  4  8  1  0
  5  6  1  0
  6 11  1  0
  9 10  2  0
  9 12  1  0
 10 13  1  0
 10 14  1  0
 12 15  2  0
 13 16  2  0
 15 16  1  0
  2 17  1  0
  3 18  1  0
  4 19  1  0
  5 20  1  0
  5 21  1  0
  6 22  1  0
  6 23  1  0
  8 24  1  0
  8 25  1  0
  8 26  1  0
 11 27  1  0
 11 28  1  0
 11 29  1  0
 12 30  1  0
 13 31  1  0
 14 32  1  0
 14 33  1  0
 14 34  1  0
 15 35  1  0
 16 36  1  0
M  END
>  <ALOGPS_LOGP>  (1) 
1.87

>  <ALOGPS_LOGS>  (1) 
-2.83

>  <ALOGPS_SOLUBILITY>  (1) 
3.26e-01 g/l

>  <DATABASE_ID>  (1) 
DB00750

>  <DATABASE_NAME>  (1) 
drugbank

>  <DRUGBANK_ID>  (1) 
DB00750

>  <DRUG_GROUPS>  (1) 
approved

>  <EXACT_MASS>  (1) 
220.157563272

>  <FORMULA>  (1) 
C13H20N2O

>  <GENERIC_NAME>  (1) 
Prilocaine

>  <INCHI_IDENTIFIER>  (1) 
InChI=1S/C13H20N2O/c1-4-9-14-11(3)13(16)15-12-8-6-5-7-10(12)2/h5-8,11,14H,4,9H2,1-3H3,(H,15,16)

>  <INCHI_KEY>  (1) 
MVFGUOIZUNYYSO-UHFFFAOYSA-N

>  <INTERNATIONAL_BRANDS>  (1) 
Citanest; Prilotekal; Takipril

>  <JCHEM_ACCEPTOR_COUNT>  (1) 
2

>  <JCHEM_AVERAGE_POLARIZABILITY>  (1) 
25.976297247961284

>  <JCHEM_BIOAVAILABILITY>  (1) 
1

>  <JCHEM_DONOR_COUNT>  (1) 
2

>  <JCHEM_FORMAL_CHARGE>  (1) 
0

>  <JCHEM_GHOSE_FILTER>  (1) 
1

>  <JCHEM_IUPAC>  (1) 
N-(2-methylphenyl)-2-(propylamino)propanamide

>  <JCHEM_LOGP>  (1) 
2.6809227156666666

>  <JCHEM_MDDR_LIKE_RULE>  (1) 
0

>  <JCHEM_NUMBER_OF_RINGS>  (1) 
1

>  <JCHEM_PHYSIOLOGICAL_CHARGE>  (1) 
1

>  <JCHEM_PKA_STRONGEST_ACIDIC>  (1) 
13.509081505542508

>  <JCHEM_PKA_STRONGEST_BASIC>  (1) 
8.815906516402368

>  <JCHEM_POLAR_SURFACE_AREA>  (1) 
41.13

>  <JCHEM_REFRACTIVITY>  (1) 
67.86300000000001

>  <JCHEM_ROTATABLE_BOND_COUNT>  (1) 
5

>  <JCHEM_RULE_OF_FIVE>  (1) 
1

>  <JCHEM_TRADITIONAL_IUPAC>  (1) 
prilocaine

>  <JCHEM_VEBER_RULE>  (1) 
0

>  <MOLECULAR_WEIGHT>  (1) 
220.3107

>  <PRODUCTS>  (1) 
4% Citanest Forte Dental With Epinephrine 1:200,000; 4% Citanest Plain Dental; AgonEaze; Anodyne LPT; Cadira Compliant Blood Stat; Citanest Forte; Citanest Plain; Dentsply 4% Prilocaine Hydrochloride Dental Injection; Dentsply 4% Prilocaine and Epinephrine Injection 1:200,000; DermacinRx Cinlone-I CPI; DermacinRx Cinlone-II CPI; DermacinRx Empricaine; DermacinRx Prikaan; DermacinRx Prizopak; Dolotranz; Emla; Emla Cream; Emla Patch; Fortacin; IV Infusion CPI; LiProZonePak; Lido Bdk; Lido-Prilo Caine Pack; Lidocaine 2.5% and Prilocaine 2.5% Cream; Lidocaine and Prilocaine; Lidocaine-Prilocaine-Cream Base; Lidopril; Lidopril XR; Medolor Pak Lidocaine and Prilocaine Cream Kit; Oraqix; Prikaan; Prikaan Lite; Prilocaine HCl 4% Epineph 1:200000inj; Prilocaine Hydrochloride; Prilocaine Hydrochloride with Epinephrine; Prilolid; Relador Pak Plus; Relador Pak with Occlusive Dressing; Venipuncture CPI

>  <SALTS>  (1) 
Prilocaine Hydrochloride

>  <SECONDARY_ACCESSION_NUMBERS>  (1) 
APRD00180

>  <SMILES>  (1) 
CCCNC(C)C(=O)NC1=CC=CC=C1C

>  <SYNONYMS>  (1) 
Prilocain; Prilocaina; Priloca√Øne; Prilocainum; Propitocaine

$$$$
