
     RDKit          2D

 66 66  0  0  1  0  0  0  0  0999 V2000
    6.6365  -13.5279    0.0000 C   0  0  0  0  0  0  0  0  0  0  0  0
    7.3499  -13.1128    0.0000 C   0  0  0  0  0  0  0  0  0  0  0  0
    5.9196  -13.1128    0.0000 C   0  0  0  0  0  0  0  0  0  0  0  0
    7.3499  -12.2863    0.0000 C   0  0  0  0  0  0  0  0  0  0  0  0
    8.0634  -13.5279    0.0000 O   0  0  0  0  0  0  0  0  0  0  0  0
    5.9196  -12.2863    0.0000 C   0  0  0  0  0  0  0  0  0  0  0  0
    5.2062  -13.5279    0.0000 O   0  0  0  0  0  0  0  0  0  0  0  0
    6.6365  -11.8780    0.0000 O   0  0  0  0  0  0  0  0  0  0  0  0
    8.0600  -11.8746    0.0000 S   0  0  0  0  0  0  0  0  0  0  0  0
    5.2028  -11.8780    0.0000 C   0  0  0  0  0  0  0  0  0  0  0  0
    6.6374  -14.3529    0.0000 O   0  0  0  0  0  0  0  0  0  0  0  0
    5.2042  -11.0530    0.0000 O   0  0  0  0  0  0  0  0  0  0  0  0
    4.4899  -10.6405    0.0000 C   0  0  0  0  0  0  0  0  0  0  0  0
    4.4899   -9.8156    0.0000 O   0  0  0  0  0  0  0  0  0  0  0  0
    3.7753  -11.0530    0.0000 C   0  0  0  0  0  0  0  0  0  0  0  0
    4.4904  -13.1177    0.0000 C   0  0  0  0  0  0  0  0  0  0  0  0
    3.7773  -13.5325    0.0000 C   0  0  0  0  0  0  0  0  0  0  0  0
    4.4904  -12.2927    0.0000 O   0  0  0  0  0  0  0  0  0  0  0  0
    5.9234  -14.7660    0.0000 C   0  0  0  0  0  0  0  0  0  0  0  0
    5.2090  -14.3536    0.0000 C   0  0  0  0  0  0  0  0  0  0  0  0
    5.9234  -15.5910    0.0000 O   0  0  0  0  0  0  0  0  0  0  0  0
    8.7779  -13.1154    0.0000 C   0  0  0  0  0  0  0  0  0  0  0  0
    9.4924  -13.5279    0.0000 C   0  0  0  0  0  0  0  0  0  0  0  0
    8.7779  -12.2904    0.0000 O   0  0  0  0  0  0  0  0  0  0  0  0
    7.3689  -10.6008    0.0000 P   0  0  0  0  0  0  0  0  0  0  0  0
    7.3602   -9.7759    0.0000 C   0  0  0  0  0  0  0  0  0  0  0  0
    6.6589  -11.0209    0.0000 C   0  0  0  0  0  0  0  0  0  0  0  0
    6.6501  -10.1959    0.0000 C   0  0  0  0  0  0  0  0  0  0  0  0
    8.0702   -9.3559    0.0000 C   0  0  0  0  0  0  0  0  0  0  0  0
    6.6414   -9.3710    0.0000 C   0  0  0  0  0  0  0  0  0  0  0  0
    8.0353  -10.9932    0.0000 Au  0  0  0  0  0  0  0  0  0  0  0  0
    5.9390  -10.6215    0.0000 C   0  0  0  0  0  0  0  0  0  0  0  0
    0.0000    0.0000    0.0000 H   0  0  0  0  0  0  0  0  0  0  0  0
    0.0000    0.0000    0.0000 H   0  0  0  0  0  0  0  0  0  0  0  0
    0.0000    0.0000    0.0000 H   0  0  0  0  0  0  0  0  0  0  0  0
    0.0000    0.0000    0.0000 H   0  0  0  0  0  0  0  0  0  0  0  0
    0.0000    0.0000    0.0000 H   0  0  0  0  0  0  0  0  0  0  0  0
    0.0000    0.0000    0.0000 H   0  0  0  0  0  0  0  0  0  0  0  0
    0.0000    0.0000    0.0000 H   0  0  0  0  0  0  0  0  0  0  0  0
    0.0000    0.0000    0.0000 H   0  0  0  0  0  0  0  0  0  0  0  0
    0.0000    0.0000    0.0000 H   0  0  0  0  0  0  0  0  0  0  0  0
    0.0000    0.0000    0.0000 H   0  0  0  0  0  0  0  0  0  0  0  0
    0.0000    0.0000    0.0000 H   0  0  0  0  0  0  0  0  0  0  0  0
    0.0000    0.0000    0.0000 H   0  0  0  0  0  0  0  0  0  0  0  0
    0.0000    0.0000    0.0000 H   0  0  0  0  0  0  0  0  0  0  0  0
    0.0000    0.0000    0.0000 H   0  0  0  0  0  0  0  0  0  0  0  0
    0.0000    0.0000    0.0000 H   0  0  0  0  0  0  0  0  0  0  0  0
    0.0000    0.0000    0.0000 H   0  0  0  0  0  0  0  0  0  0  0  0
    0.0000    0.0000    0.0000 H   0  0  0  0  0  0  0  0  0  0  0  0
    0.0000    0.0000    0.0000 H   0  0  0  0  0  0  0  0  0  0  0  0
    0.0000    0.0000    0.0000 H   0  0  0  0  0  0  0  0  0  0  0  0
    0.0000    0.0000    0.0000 H   0  0  0  0  0  0  0  0  0  0  0  0
    0.0000    0.0000    0.0000 H   0  0  0  0  0  0  0  0  0  0  0  0
    0.0000    0.0000    0.0000 H   0  0  0  0  0  0  0  0  0  0  0  0
    0.0000    0.0000    0.0000 H   0  0  0  0  0  0  0  0  0  0  0  0
    0.0000    0.0000    0.0000 H   0  0  0  0  0  0  0  0  0  0  0  0
    0.0000    0.0000    0.0000 H   0  0  0  0  0  0  0  0  0  0  0  0
    0.0000    0.0000    0.0000 H   0  0  0  0  0  0  0  0  0  0  0  0
    0.0000    0.0000    0.0000 H   0  0  0  0  0  0  0  0  0  0  0  0
    0.0000    0.0000    0.0000 H   0  0  0  0  0  0  0  0  0  0  0  0
    0.0000    0.0000    0.0000 H   0  0  0  0  0  0  0  0  0  0  0  0
    0.0000    0.0000    0.0000 H   0  0  0  0  0  0  0  0  0  0  0  0
    0.0000    0.0000    0.0000 H   0  0  0  0  0  0  0  0  0  0  0  0
    0.0000    0.0000    0.0000 H   0  0  0  0  0  0  0  0  0  0  0  0
    0.0000    0.0000    0.0000 H   0  0  0  0  0  0  0  0  0  0  0  0
    0.0000    0.0000    0.0000 H   0  0  0  0  0  0  0  0  0  0  0  0
  1  2  1  0
  1  3  1  0
  2  4  1  0
  2  5  1  1
  3  6  1  0
  3  7  1  6
  4  8  1  0
  4  9  1  1
  6 10  1  1
  6  8  1  0
  1 11  1  6
 10 12  1  0
 12 13  1  0
 13 14  2  0
 13 15  1  0
  7 16  1  0
 16 17  1  0
 16 18  2  0
 11 19  1  0
 19 20  1  0
 19 21  2  0
  5 22  1  0
 22 23  1  0
 22 24  2  0
 25 26  1  0
 25 27  1  0
 25 28  1  0
 26 29  1  0
 28 30  1  0
 25 31  1  0
  9 31  1  0
 27 32  1  0
  1 33  1  0
  2 34  1  0
  3 35  1  0
  4 36  1  0
  6 37  1  0
 10 38  1  0
 10 39  1  0
 15 40  1  0
 15 41  1  0
 15 42  1  0
 17 43  1  0
 17 44  1  0
 17 45  1  0
 20 46  1  0
 20 47  1  0
 20 48  1  0
 23 49  1  0
 23 50  1  0
 23 51  1  0
 26 52  1  0
 26 53  1  0
 27 54  1  0
 27 55  1  0
 28 56  1  0
 28 57  1  0
 29 58  1  0
 29 59  1  0
 29 60  1  0
 30 61  1  0
 30 62  1  0
 30 63  1  0
 32 64  1  0
 32 65  1  0
 32 66  1  0
M  CHG  2  25   1  31  -1
M  END
>  <ALOGPS_LOGP>  (1) 
2.99

>  <ALOGPS_LOGS>  (1) 
-3.65

>  <ALOGPS_SOLUBILITY>  (1) 
1.51e-01 g/l

>  <DATABASE_ID>  (1) 
DB00995

>  <DATABASE_NAME>  (1) 
drugbank

>  <DRUGBANK_ID>  (1) 
DB00995

>  <DRUG_GROUPS>  (1) 
approved

>  <EXACT_MASS>  (1) 
678.132685

>  <FORMULA>  (1) 
C20H34AuO9PS

>  <GENERIC_NAME>  (1) 
Auranofin

>  <INCHI_IDENTIFIER>  (1) 
InChI=1S/C14H20O9S.C6H15P.Au/c1-6(15)19-5-10-11(20-7(2)16)12(21-8(3)17)13(14(24)23-10)22-9(4)18;1-4-7(5-2)6-3;/h10-14,24H,5H2,1-4H3;4-6H2,1-3H3;/q;;+1/p-1/t10-,11-,12+,13-,14+;;/m1../s1

>  <INCHI_KEY>  (1) 
AUJRCFUBUPVWSZ-XTZHGVARSA-M

>  <JCHEM_ACCEPTOR_COUNT>  (1) 
5

>  <JCHEM_ATOM_COUNT>  (1) 
66

>  <JCHEM_AVERAGE_POLARIZABILITY>  (1) 
50.82389447493229

>  <JCHEM_BIOAVAILABILITY>  (1) 
0

>  <JCHEM_DONOR_COUNT>  (1) 
0

>  <JCHEM_FORMAL_CHARGE>  (1) 
0

>  <JCHEM_GHOSE_FILTER>  (1) 
0

>  <JCHEM_IUPAC>  (1) 
[(2R,3R,4S,5R,6S)-3,4,5-tris(acetyloxy)-6-{[(triethyl-lambda5-phosphanylidene)aurio]sulfanyl}oxan-2-yl]methyl acetate

>  <JCHEM_LOGP>  (1) 
-1.0202999999999993

>  <JCHEM_MDDR_LIKE_RULE>  (1) 
0

>  <JCHEM_NUMBER_OF_RINGS>  (1) 
1

>  <JCHEM_PHYSIOLOGICAL_CHARGE>  (1) 
0

>  <JCHEM_PKA_STRONGEST_BASIC>  (1) 
-4.267856439255475

>  <JCHEM_POLAR_SURFACE_AREA>  (1) 
114.43

>  <JCHEM_REFRACTIVITY>  (1) 
114.88500000000002

>  <JCHEM_ROTATABLE_BOND_COUNT>  (1) 
15

>  <JCHEM_RULE_OF_FIVE>  (1) 
0

>  <JCHEM_TRADITIONAL_IUPAC>  (1) 
[(2R,3R,4S,5R,6S)-3,4,5-tris(acetyloxy)-6-{[(triethyl-lambda5-phosphanylidene)aurio]sulfanyl}oxan-2-yl]methyl acetate

>  <JCHEM_VEBER_RULE>  (1) 
0

>  <MOLECULAR_WEIGHT>  (1) 
678.48

>  <PRODUCTS>  (1) 
Ridaura

>  <SECONDARY_ACCESSION_NUMBERS>  (1) 
APRD00808

>  <SMILES>  (1) 
CC[P+](CC)(CC)[Au-]S[C@@H]1O[C@H](COC(C)=O)[C@@H](OC(C)=O)[C@H](OC(C)=O)[C@H]1OC(C)=O

>  <SYNONYMS>  (1) 
(1-Thio-beta-D-glucopyranosato)(triethylphosphine)gold 2,3,4,6-tetraacetate; 2,3,4,6-Tetra-O-acetyl-1-thio-beta-D-glucopyranosato-S (triethylphosphine)gold; Auranofina; Auranofine; Auranofinum; Triethylphosphine gold

$$$$
