938
     RDKit          2D

 67 68  0  0  1  0  0  0  0  0999 V2000
    7.8089    1.9842    0.0000 O   0  0  0  0  0  0  0  0  0  0  0  0
    3.5220   -2.9659    0.0000 O   0  0  0  0  0  0  0  0  0  0  0  0
    4.2365   -6.6785    0.0000 O   0  0  0  0  0  0  0  0  0  0  0  0
    2.0930   -5.4410    0.0000 O   0  0  0  0  0  0  0  0  0  0  0  0
    4.9509   -2.1409    0.0000 N   0  0  0  0  0  0  0  0  0  0  0  0
    6.3799   -0.4909    0.0000 C   0  0  0  0  0  0  0  0  0  0  0  0
    6.3799    0.3341    0.0000 C   0  0  0  0  0  0  0  0  0  0  0  0
    5.6655   -0.9034    0.0000 C   0  0  0  0  0  0  0  0  0  0  0  0
    7.0944    0.7466    0.0000 C   0  0  0  0  0  0  0  0  0  0  0  0
    5.6655   -1.7284    0.0000 C   0  0  0  0  0  0  0  0  0  0  0  0
    4.9509   -2.9659    0.0000 C   0  0  0  0  0  0  0  0  0  0  0  0
    7.0944    1.5717    0.0000 C   0  0  0  0  0  0  0  0  0  0  0  0
    4.2365   -3.3784    0.0000 C   0  0  0  0  0  0  0  0  0  0  0  0
    8.5234    3.2217    0.0000 C   0  0  0  0  0  0  0  0  0  0  0  0
    8.5234    4.0467    0.0000 C   0  0  0  0  0  0  0  0  0  0  0  0
    7.8089    2.8092    0.0000 C   0  0  0  0  0  0  0  0  0  0  0  0
    4.2365   -4.2035    0.0000 C   0  0  0  0  0  0  0  0  0  0  0  0
    9.2379    4.4592    0.0000 C   0  0  0  0  0  0  0  0  0  0  0  0
    3.5220   -4.6160    0.0000 C   0  0  0  0  0  0  0  0  0  0  0  0
    9.2379    5.2842    0.0000 C   0  0  0  0  0  0  0  0  0  0  0  0
    4.9509   -4.6160    0.0000 C   0  0  0  0  0  0  0  0  0  0  0  0
    3.5220   -5.4410    0.0000 C   0  0  0  0  0  0  0  0  0  0  0  0
    4.9509   -5.4410    0.0000 C   0  0  0  0  0  0  0  0  0  0  0  0
    4.2365   -5.8535    0.0000 C   0  0  0  0  0  0  0  0  0  0  0  0
    8.5234    5.6968    0.0000 C   0  0  0  0  0  0  0  0  0  0  0  0
    9.9524    5.6968    0.0000 C   0  0  0  0  0  0  0  0  0  0  0  0
    2.8075   -5.8535    0.0000 C   0  0  0  0  0  0  0  0  0  0  0  0
    8.5234    6.5218    0.0000 C   0  0  0  0  0  0  0  0  0  0  0  0
    9.9524    6.5218    0.0000 C   0  0  0  0  0  0  0  0  0  0  0  0
    9.2379    6.9343    0.0000 C   0  0  0  0  0  0  0  0  0  0  0  0
    0.0000    0.0000    0.0000 H   0  0  0  0  0  0  0  0  0  0  0  0
    0.0000    0.0000    0.0000 H   0  0  0  0  0  0  0  0  0  0  0  0
    0.0000    0.0000    0.0000 H   0  0  0  0  0  0  0  0  0  0  0  0
    0.0000    0.0000    0.0000 H   0  0  0  0  0  0  0  0  0  0  0  0
    0.0000    0.0000    0.0000 H   0  0  0  0  0  0  0  0  0  0  0  0
    0.0000    0.0000    0.0000 H   0  0  0  0  0  0  0  0  0  0  0  0
    0.0000    0.0000    0.0000 H   0  0  0  0  0  0  0  0  0  0  0  0
    0.0000    0.0000    0.0000 H   0  0  0  0  0  0  0  0  0  0  0  0
    0.0000    0.0000    0.0000 H   0  0  0  0  0  0  0  0  0  0  0  0
    0.0000    0.0000    0.0000 H   0  0  0  0  0  0  0  0  0  0  0  0
    0.0000    0.0000    0.0000 H   0  0  0  0  0  0  0  0  0  0  0  0
    0.0000    0.0000    0.0000 H   0  0  0  0  0  0  0  0  0  0  0  0
    0.0000    0.0000    0.0000 H   0  0  0  0  0  0  0  0  0  0  0  0
    0.0000    0.0000    0.0000 H   0  0  0  0  0  0  0  0  0  0  0  0
    0.0000    0.0000    0.0000 H   0  0  0  0  0  0  0  0  0  0  0  0
    0.0000    0.0000    0.0000 H   0  0  0  0  0  0  0  0  0  0  0  0
    0.0000    0.0000    0.0000 H   0  0  0  0  0  0  0  0  0  0  0  0
    0.0000    0.0000    0.0000 H   0  0  0  0  0  0  0  0  0  0  0  0
    0.0000    0.0000    0.0000 H   0  0  0  0  0  0  0  0  0  0  0  0
    0.0000    0.0000    0.0000 H   0  0  0  0  0  0  0  0  0  0  0  0
    0.0000    0.0000    0.0000 H   0  0  0  0  0  0  0  0  0  0  0  0
    0.0000    0.0000    0.0000 H   0  0  0  0  0  0  0  0  0  0  0  0
    0.0000    0.0000    0.0000 H   0  0  0  0  0  0  0  0  0  0  0  0
    0.0000    0.0000    0.0000 H   0  0  0  0  0  0  0  0  0  0  0  0
    0.0000    0.0000    0.0000 H   0  0  0  0  0  0  0  0  0  0  0  0
    0.0000    0.0000    0.0000 H   0  0  0  0  0  0  0  0  0  0  0  0
    0.0000    0.0000    0.0000 H   0  0  0  0  0  0  0  0  0  0  0  0
    0.0000    0.0000    0.0000 H   0  0  0  0  0  0  0  0  0  0  0  0
    0.0000    0.0000    0.0000 H   0  0  0  0  0  0  0  0  0  0  0  0
    0.0000    0.0000    0.0000 H   0  0  0  0  0  0  0  0  0  0  0  0
    0.0000    0.0000    0.0000 H   0  0  0  0  0  0  0  0  0  0  0  0
    0.0000    0.0000    0.0000 H   0  0  0  0  0  0  0  0  0  0  0  0
    0.0000    0.0000    0.0000 H   0  0  0  0  0  0  0  0  0  0  0  0
    0.0000    0.0000    0.0000 H   0  0  0  0  0  0  0  0  0  0  0  0
    0.0000    0.0000    0.0000 H   0  0  0  0  0  0  0  0  0  0  0  0
    0.0000    0.0000    0.0000 H   0  0  0  0  0  0  0  0  0  0  0  0
    0.0000    0.0000    0.0000 H   0  0  0  0  0  0  0  0  0  0  0  0
  1 12  1  0
  1 16  1  0
  2 13  1  0
  3 24  1  0
  4 27  1  0
  5 10  1  0
  5 11  1  0
  6  7  1  0
  6  8  1  0
  7  9  1  0
  8 10  1  0
  9 12  1  0
 11 13  1  0
 13 17  1  0
 14 15  1  0
 14 16  1  0
 15 18  1  0
 17 19  2  0
 17 21  1  0
 18 20  1  0
 19 22  1  0
 20 25  2  0
 20 26  1  0
 21 23  2  0
 22 24  2  0
 22 27  1  0
 23 24  1  0
 25 28  1  0
 26 29  2  0
 28 30  2  0
 29 30  1  0
  2 31  1  0
  3 32  1  0
  4 33  1  0
  5 34  1  0
  6 35  1  0
  6 36  1  0
  7 37  1  0
  7 38  1  0
  8 39  1  0
  8 40  1  0
  9 41  1  0
  9 42  1  0
 10 43  1  0
 10 44  1  0
 11 45  1  0
 11 46  1  0
 12 47  1  0
 12 48  1  0
 13 49  1  0
 14 50  1  0
 14 51  1  0
 15 52  1  0
 15 53  1  0
 16 54  1  0
 16 55  1  0
 18 56  1  0
 18 57  1  0
 19 58  1  0
 21 59  1  0
 23 60  1  0
 25 61  1  0
 26 62  1  0
 27 63  1  0
 27 64  1  0
 28 65  1  0
 29 66  1  0
 30 67  1  0
M  END
>  <ALOGPS_LOGP>  (1) 
3.82

>  <ALOGPS_LOGS>  (1) 
-5.26

>  <ALOGPS_SOLUBILITY>  (1) 
2.26e-03 g/l

>  <DATABASE_ID>  (1) 
DB00938

>  <DATABASE_NAME>  (1) 
drugbank

>  <DRUGBANK_ID>  (1) 
DB00938

>  <DRUG_GROUPS>  (1) 
approved

>  <EXACT_MASS>  (1) 
415.272258677

>  <FORMULA>  (1) 
C25H37NO4

>  <GENERIC_NAME>  (1) 
Salmeterol

>  <INCHI_IDENTIFIER>  (1) 
InChI=1S/C25H37NO4/c27-20-23-18-22(13-14-24(23)28)25(29)19-26-15-7-1-2-8-16-30-17-9-6-12-21-10-4-3-5-11-21/h3-5,10-11,13-14,18,25-29H,1-2,6-9,12,15-17,19-20H2

>  <INCHI_KEY>  (1) 
GIIZNNXWQWCKIB-UHFFFAOYSA-N

>  <INTERNATIONAL_BRANDS>  (1) 
Aeromax Diskus; Arial; Salmetedur; Serevent

>  <JCHEM_ACCEPTOR_COUNT>  (1) 
5

>  <JCHEM_AVERAGE_POLARIZABILITY>  (1) 
50.59519997365934

>  <JCHEM_BIOAVAILABILITY>  (1) 
1

>  <JCHEM_DONOR_COUNT>  (1) 
4

>  <JCHEM_FORMAL_CHARGE>  (1) 
0

>  <JCHEM_GHOSE_FILTER>  (1) 
1

>  <JCHEM_IUPAC>  (1) 
4-(1-hydroxy-2-{[6-(4-phenylbutoxy)hexyl]amino}ethyl)-2-(hydroxymethyl)phenol

>  <JCHEM_LOGP>  (1) 
3.6146962067229897

>  <JCHEM_MDDR_LIKE_RULE>  (1) 
0

>  <JCHEM_NUMBER_OF_RINGS>  (1) 
2

>  <JCHEM_PHYSIOLOGICAL_CHARGE>  (1) 
1

>  <JCHEM_PKA>  (1) 
14.18049423738092

>  <JCHEM_PKA_STRONGEST_ACIDIC>  (1) 
10.116023889198962

>  <JCHEM_PKA_STRONGEST_BASIC>  (1) 
9.404292511622396

>  <JCHEM_POLAR_SURFACE_AREA>  (1) 
81.95

>  <JCHEM_REFRACTIVITY>  (1) 
122.39040000000001

>  <JCHEM_ROTATABLE_BOND_COUNT>  (1) 
16

>  <JCHEM_RULE_OF_FIVE>  (1) 
1

>  <JCHEM_TRADITIONAL_IUPAC>  (1) 
salmeterol

>  <JCHEM_VEBER_RULE>  (1) 
0

>  <MOLECULAR_WEIGHT>  (1) 
415.5656

>  <PRODUCTS>  (1) 
Advair 100 Diskus; Advair 125; Advair 250; Advair 250 Diskus; Advair 500 Diskus; Advair Diskus; Advair HFA; Advairdiskus Diskus; AirDuo RespiClick; Airexar Spiromax; Fluticasone Propionate and Salmeterol; Serevent (25mcg/actuation); Serevent Diskhaler Disk (50mcg/dose); Serevent Diskus; Serevent Diskus (50mcg/dose); Serevent- Aem 25mcg/aem; Serevent-pwr 50mcg/blister Pack

>  <SALTS>  (1) 
Salmeterol xinafoate

>  <SECONDARY_ACCESSION_NUMBERS>  (1) 
APRD00277

>  <SMILES>  (1) 
OCC1=C(O)C=CC(=C1)C(O)CNCCCCCCOCCCCC1=CC=CC=C1

>  <SYNONYMS>  (1) 
Salmaterol; Salmeterolum

$$$$
