
     RDKit          2D

 75 78  0  0  1  0  0  0  0  0999 V2000
   -0.2182    6.5270    0.0000 C   0  0  0  0  0  0  0  0  0  0  0  0
   -2.8697    8.9960    0.0000 C   0  0  0  0  0  0  0  0  0  0  0  0
   -1.0307    6.6702    0.0000 C   0  0  0  0  0  0  0  0  0  0  0  0
   -3.6822    8.8527    0.0000 C   0  0  0  0  0  0  0  0  0  0  0  0
   -1.6590    2.4690    0.0000 C   0  0  0  0  0  0  0  0  0  0  0  0
   -0.9445    2.8815    0.0000 C   0  0  0  0  0  0  0  0  0  0  0  0
   -2.3734    2.8815    0.0000 C   0  0  0  0  0  0  0  0  0  0  0  0
   -5.8714    7.0157    0.0000 C   0  0  0  0  0  0  0  0  0  0  0  0
   -0.9445    3.7065    0.0000 C   0  0  0  0  0  0  0  0  0  0  0  0
   -2.3734    3.7065    0.0000 C   0  0  0  0  0  0  0  0  0  0  0  0
   -5.0590    7.1590    0.0000 C   0  0  0  0  0  0  0  0  0  0  0  0
   -6.4017    7.6477    0.0000 C   0  0  0  0  0  0  0  0  0  0  0  0
   -6.3337   12.0126    0.0000 C   0  0  0  0  0  0  0  0  0  0  0  0
   -6.6158   11.2374    0.0000 C   0  0  0  0  0  0  0  0  0  0  0  0
   -1.6590    4.9440    0.0000 C   0  0  0  0  0  0  0  0  0  0  0  0
   -1.5610    6.0382    0.0000 C   0  0  0  0  0  0  0  0  0  0  0  0
   -2.3734    5.3565    0.0000 C   0  0  0  0  0  0  0  0  0  0  0  0
   -5.3071    8.5662    0.0000 C   0  0  0  0  0  0  0  0  0  0  0  0
   -2.0913    6.9567    0.0000 C   0  0  0  0  0  0  0  0  0  0  0  0
   -4.9909   11.5239    0.0000 C   0  0  0  0  0  0  0  0  0  0  0  0
   -1.6590    4.1190    0.0000 C   0  0  0  0  0  0  0  0  0  0  0  0
   -4.7768    7.9342    0.0000 C   0  0  0  0  0  0  0  0  0  0  0  0
   -5.5212   12.1559    0.0000 C   0  0  0  0  0  0  0  0  0  0  0  0
   -6.1196    8.4229    0.0000 C   0  0  0  0  0  0  0  0  0  0  0  0
   -3.9643    8.0775    0.0000 C   0  0  0  0  0  0  0  0  0  0  0  0
   -2.6216    7.5887    0.0000 C   0  0  0  0  0  0  0  0  0  0  0  0
   -6.0855   10.6054    0.0000 C   0  0  0  0  0  0  0  0  0  0  0  0
   -3.4340    7.4455    0.0000 C   0  0  0  0  0  0  0  0  0  0  0  0
   -3.7162    6.6702    0.0000 C   0  0  0  0  0  0  0  0  0  0  0  0
   -2.3734    6.1815    0.0000 C   0  0  0  0  0  0  0  0  0  0  0  0
   -5.2390   12.9311    0.0000 C   0  0  0  0  0  0  0  0  0  0  0  0
   -4.9569   13.7064    0.0000 F   0  0  0  0  0  0  0  0  0  0  0  0
   -4.4638   12.6490    0.0000 F   0  0  0  0  0  0  0  0  0  0  0  0
   -6.0143   13.2133    0.0000 F   0  0  0  0  0  0  0  0  0  0  0  0
   -5.2731   10.7487    0.0000 N   0  0  0  0  0  0  0  0  0  0  0  0
   -6.6499    9.0549    0.0000 N   0  0  0  0  0  0  0  0  0  0  0  0
   -2.3394    8.3640    0.0000 O   0  0  0  0  0  0  0  0  0  0  0  0
   -4.5287    6.5270    0.0000 O   0  0  0  0  0  0  0  0  0  0  0  0
   -5.5925    9.5480    0.0000 O   0  0  0  0  0  0  0  0  0  0  0  0
   -7.1429   10.1123    0.0000 O   0  0  0  0  0  0  0  0  0  0  0  0
   -3.1859    6.0382    0.0000 O   0  0  0  0  0  0  0  0  0  0  0  0
   -6.3677    9.8302    0.0000 S   0  0  0  0  0  0  0  0  0  0  0  0
    0.0000    0.0000    0.0000 H   0  0  0  0  0  0  0  0  0  0  0  0
    0.0000    0.0000    0.0000 H   0  0  0  0  0  0  0  0  0  0  0  0
    0.0000    0.0000    0.0000 H   0  0  0  0  0  0  0  0  0  0  0  0
    0.0000    0.0000    0.0000 H   0  0  0  0  0  0  0  0  0  0  0  0
    0.0000    0.0000    0.0000 H   0  0  0  0  0  0  0  0  0  0  0  0
    0.0000    0.0000    0.0000 H   0  0  0  0  0  0  0  0  0  0  0  0
    0.0000    0.0000    0.0000 H   0  0  0  0  0  0  0  0  0  0  0  0
    0.0000    0.0000    0.0000 H   0  0  0  0  0  0  0  0  0  0  0  0
    0.0000    0.0000    0.0000 H   0  0  0  0  0  0  0  0  0  0  0  0
    0.0000    0.0000    0.0000 H   0  0  0  0  0  0  0  0  0  0  0  0
    0.0000    0.0000    0.0000 H   0  0  0  0  0  0  0  0  0  0  0  0
    0.0000    0.0000    0.0000 H   0  0  0  0  0  0  0  0  0  0  0  0
    0.0000    0.0000    0.0000 H   0  0  0  0  0  0  0  0  0  0  0  0
    0.0000    0.0000    0.0000 H   0  0  0  0  0  0  0  0  0  0  0  0
    0.0000    0.0000    0.0000 H   0  0  0  0  0  0  0  0  0  0  0  0
    0.0000    0.0000    0.0000 H   0  0  0  0  0  0  0  0  0  0  0  0
    0.0000    0.0000    0.0000 H   0  0  0  0  0  0  0  0  0  0  0  0
    0.0000    0.0000    0.0000 H   0  0  0  0  0  0  0  0  0  0  0  0
    0.0000    0.0000    0.0000 H   0  0  0  0  0  0  0  0  0  0  0  0
    0.0000    0.0000    0.0000 H   0  0  0  0  0  0  0  0  0  0  0  0
    0.0000    0.0000    0.0000 H   0  0  0  0  0  0  0  0  0  0  0  0
    0.0000    0.0000    0.0000 H   0  0  0  0  0  0  0  0  0  0  0  0
    0.0000    0.0000    0.0000 H   0  0  0  0  0  0  0  0  0  0  0  0
    0.0000    0.0000    0.0000 H   0  0  0  0  0  0  0  0  0  0  0  0
    0.0000    0.0000    0.0000 H   0  0  0  0  0  0  0  0  0  0  0  0
    0.0000    0.0000    0.0000 H   0  0  0  0  0  0  0  0  0  0  0  0
    0.0000    0.0000    0.0000 H   0  0  0  0  0  0  0  0  0  0  0  0
    0.0000    0.0000    0.0000 H   0  0  0  0  0  0  0  0  0  0  0  0
    0.0000    0.0000    0.0000 H   0  0  0  0  0  0  0  0  0  0  0  0
    0.0000    0.0000    0.0000 H   0  0  0  0  0  0  0  0  0  0  0  0
    0.0000    0.0000    0.0000 H   0  0  0  0  0  0  0  0  0  0  0  0
    0.0000    0.0000    0.0000 H   0  0  0  0  0  0  0  0  0  0  0  0
    0.0000    0.0000    0.0000 H   0  0  0  0  0  0  0  0  0  0  0  0
  3  1  1  0
  4  2  1  0
  6  5  2  0
  7  5  1  0
  9  6  1  0
 10  7  2  0
 11  8  2  0
 12  8  1  0
 14 13  2  0
 16  3  1  0
 17 15  1  0
 21  9  2  0
 21 10  1  0
 21 15  1  0
 22 11  1  0
 22 18  2  0
 23 13  1  0
 23 20  2  0
 24 12  2  0
 24 18  1  0
 25  4  1  6
 25 22  1  0
 26 19  1  0
 27 14  1  0
 25 28  1  0
 28 26  2  0
 29 28  1  0
 30 16  1  6
 30 17  1  0
 30 19  1  0
 31 23  1  0
 32 31  1  0
 33 31  1  0
 34 31  1  0
 35 20  1  0
 35 27  2  0
 36 24  1  0
 37 26  1  0
 38 29  2  0
 41 29  1  0
 41 30  1  0
 42 27  1  0
 42 36  1  0
 42 39  2  0
 42 40  2  0
  1 43  1  0
  1 44  1  0
  1 45  1  0
  2 46  1  0
  2 47  1  0
  2 48  1  0
  3 49  1  0
  3 50  1  0
  4 51  1  0
  4 52  1  0
  5 53  1  0
  6 54  1  0
  7 55  1  0
  8 56  1  0
  9 57  1  0
 10 58  1  0
 11 59  1  0
 12 60  1  0
 13 61  1  0
 14 62  1  0
 15 63  1  0
 15 64  1  0
 16 65  1  0
 16 66  1  0
 17 67  1  0
 17 68  1  0
 18 69  1  0
 19 70  1  0
 19 71  1  0
 20 72  1  0
 25 73  1  0
 36 74  1  0
 37 75  1  0
M  END
>  <ALOGPS_LOGP>  (1) 
6.29

>  <ALOGPS_LOGS>  (1) 
-6.47

>  <ALOGPS_SOLUBILITY>  (1) 
2.05e-04 g/l

>  <DATABASE_ID>  (1) 
DB00932

>  <DATABASE_NAME>  (1) 
drugbank

>  <DRUGBANK_ID>  (1) 
DB00932

>  <DRUG_GROUPS>  (1) 
approved; investigational

>  <EXACT_MASS>  (1) 
602.206227481

>  <FORMULA>  (1) 
C31H33F3N2O5S

>  <GENERIC_NAME>  (1) 
Tipranavir

>  <INCHI_IDENTIFIER>  (1) 
InChI=1S/C31H33F3N2O5S/c1-3-16-30(17-15-21-9-6-5-7-10-21)19-26(37)28(29(38)41-30)25(4-2)22-11-8-12-24(18-22)36-42(39,40)27-14-13-23(20-35-27)31(32,33)34/h5-14,18,20,25,36-37H,3-4,15-17,19H2,1-2H3/t25-,30-/m1/s1

>  <INCHI_KEY>  (1) 
SUJUHGSWHZTSEU-FYBSXPHGSA-N

>  <JCHEM_ACCEPTOR_COUNT>  (1) 
5

>  <JCHEM_AVERAGE_POLARIZABILITY>  (1) 
60.87059918173141

>  <JCHEM_BIOAVAILABILITY>  (1) 
0

>  <JCHEM_DONOR_COUNT>  (1) 
2

>  <JCHEM_FORMAL_CHARGE>  (1) 
0

>  <JCHEM_GHOSE_FILTER>  (1) 
0

>  <JCHEM_IUPAC>  (1) 
N-{3-[(1R)-1-[(6R)-4-hydroxy-2-oxo-6-(2-phenylethyl)-6-propyl-5,6-dihydro-2H-pyran-3-yl]propyl]phenyl}-5-(trifluoromethyl)pyridine-2-sulfonamide

>  <JCHEM_LOGP>  (1) 
7.138675971333333

>  <JCHEM_MDDR_LIKE_RULE>  (1) 
1

>  <JCHEM_NUMBER_OF_RINGS>  (1) 
4

>  <JCHEM_PHYSIOLOGICAL_CHARGE>  (1) 
-1

>  <JCHEM_PKA>  (1) 
6.917556438593575

>  <JCHEM_PKA_STRONGEST_ACIDIC>  (1) 
5.918154102500655

>  <JCHEM_PKA_STRONGEST_BASIC>  (1) 
-3.306793686893402

>  <JCHEM_POLAR_SURFACE_AREA>  (1) 
105.59000000000002

>  <JCHEM_REFRACTIVITY>  (1) 
154.57229999999998

>  <JCHEM_ROTATABLE_BOND_COUNT>  (1) 
11

>  <JCHEM_RULE_OF_FIVE>  (1) 
0

>  <JCHEM_TRADITIONAL_IUPAC>  (1) 
tipranavir

>  <JCHEM_VEBER_RULE>  (1) 
0

>  <MOLECULAR_WEIGHT>  (1) 
602.664

>  <PRODUCTS>  (1) 
Aptivus

>  <SALTS>  (1) 
Tipranavir disodium

>  <SECONDARY_ACCESSION_NUMBERS>  (1) 
APRD01306

>  <SMILES>  (1) 
[H][C@@](CC)(C1=CC(NS(=O)(=O)C2=NC=C(C=C2)C(F)(F)F)=CC=C1)C1=C(O)C[C@@](CCC)(CCC2=CC=CC=C2)OC1=O

$$$$
