841
     RDKit          2D

 45 46  0  0  1  0  0  0  0  0999 V2000
    3.5220    3.8405    0.0000 O   0  0  0  0  0  0  0  0  0  0  0  0
    9.2379   -3.5847    0.0000 O   0  0  0  0  0  0  0  0  0  0  0  0
    2.0930    3.0154    0.0000 O   0  0  0  0  0  0  0  0  0  0  0  0
    5.6655    0.1279    0.0000 N   0  0  0  0  0  0  0  0  0  0  0  0
    5.6655   -0.6971    0.0000 C   0  0  0  0  0  0  0  0  0  0  0  0
    6.3799   -1.1096    0.0000 C   0  0  0  0  0  0  0  0  0  0  0  0
    6.3799   -1.9347    0.0000 C   0  0  0  0  0  0  0  0  0  0  0  0
    4.9509    0.5404    0.0000 C   0  0  0  0  0  0  0  0  0  0  0  0
    4.9509   -1.1096    0.0000 C   0  0  0  0  0  0  0  0  0  0  0  0
    4.9509    1.3654    0.0000 C   0  0  0  0  0  0  0  0  0  0  0  0
    7.0944   -2.3472    0.0000 C   0  0  0  0  0  0  0  0  0  0  0  0
    4.2365    1.7779    0.0000 C   0  0  0  0  0  0  0  0  0  0  0  0
    7.8089   -1.9347    0.0000 C   0  0  0  0  0  0  0  0  0  0  0  0
    7.0944   -3.1722    0.0000 C   0  0  0  0  0  0  0  0  0  0  0  0
    4.2365    2.6029    0.0000 C   0  0  0  0  0  0  0  0  0  0  0  0
    3.5220    1.3654    0.0000 C   0  0  0  0  0  0  0  0  0  0  0  0
    8.5234   -2.3472    0.0000 C   0  0  0  0  0  0  0  0  0  0  0  0
    7.8089   -3.5847    0.0000 C   0  0  0  0  0  0  0  0  0  0  0  0
    3.5220    3.0154    0.0000 C   0  0  0  0  0  0  0  0  0  0  0  0
    8.5234   -3.1722    0.0000 C   0  0  0  0  0  0  0  0  0  0  0  0
    2.8075    1.7779    0.0000 C   0  0  0  0  0  0  0  0  0  0  0  0
    2.8075    2.6029    0.0000 C   0  0  0  0  0  0  0  0  0  0  0  0
    0.0000    0.0000    0.0000 H   0  0  0  0  0  0  0  0  0  0  0  0
    0.0000    0.0000    0.0000 H   0  0  0  0  0  0  0  0  0  0  0  0
    0.0000    0.0000    0.0000 H   0  0  0  0  0  0  0  0  0  0  0  0
    0.0000    0.0000    0.0000 H   0  0  0  0  0  0  0  0  0  0  0  0
    0.0000    0.0000    0.0000 H   0  0  0  0  0  0  0  0  0  0  0  0
    0.0000    0.0000    0.0000 H   0  0  0  0  0  0  0  0  0  0  0  0
    0.0000    0.0000    0.0000 H   0  0  0  0  0  0  0  0  0  0  0  0
    0.0000    0.0000    0.0000 H   0  0  0  0  0  0  0  0  0  0  0  0
    0.0000    0.0000    0.0000 H   0  0  0  0  0  0  0  0  0  0  0  0
    0.0000    0.0000    0.0000 H   0  0  0  0  0  0  0  0  0  0  0  0
    0.0000    0.0000    0.0000 H   0  0  0  0  0  0  0  0  0  0  0  0
    0.0000    0.0000    0.0000 H   0  0  0  0  0  0  0  0  0  0  0  0
    0.0000    0.0000    0.0000 H   0  0  0  0  0  0  0  0  0  0  0  0
    0.0000    0.0000    0.0000 H   0  0  0  0  0  0  0  0  0  0  0  0
    0.0000    0.0000    0.0000 H   0  0  0  0  0  0  0  0  0  0  0  0
    0.0000    0.0000    0.0000 H   0  0  0  0  0  0  0  0  0  0  0  0
    0.0000    0.0000    0.0000 H   0  0  0  0  0  0  0  0  0  0  0  0
    0.0000    0.0000    0.0000 H   0  0  0  0  0  0  0  0  0  0  0  0
    0.0000    0.0000    0.0000 H   0  0  0  0  0  0  0  0  0  0  0  0
    0.0000    0.0000    0.0000 H   0  0  0  0  0  0  0  0  0  0  0  0
    0.0000    0.0000    0.0000 H   0  0  0  0  0  0  0  0  0  0  0  0
    0.0000    0.0000    0.0000 H   0  0  0  0  0  0  0  0  0  0  0  0
    0.0000    0.0000    0.0000 H   0  0  0  0  0  0  0  0  0  0  0  0
  1 19  1  0
  2 20  1  0
  3 22  1  0
  4  5  1  0
  4  8  1  0
  5  6  1  0
  5  9  1  0
  6  7  1  0
  7 11  1  0
  8 10  1  0
 10 12  1  0
 11 13  2  0
 11 14  1  0
 12 15  2  0
 12 16  1  0
 13 17  1  0
 14 18  2  0
 15 19  1  0
 16 21  2  0
 17 20  2  0
 18 20  1  0
 19 22  2  0
 21 22  1  0
  1 23  1  0
  2 24  1  0
  3 25  1  0
  4 26  1  0
  5 27  1  0
  6 28  1  0
  6 29  1  0
  7 30  1  0
  7 31  1  0
  8 32  1  0
  8 33  1  0
  9 34  1  0
  9 35  1  0
  9 36  1  0
 10 37  1  0
 10 38  1  0
 13 39  1  0
 14 40  1  0
 15 41  1  0
 16 42  1  0
 17 43  1  0
 18 44  1  0
 21 45  1  0
M  END
>  <ALOGPS_LOGP>  (1) 
2.97

>  <ALOGPS_LOGS>  (1) 
-4.34

>  <ALOGPS_SOLUBILITY>  (1) 
1.37e-02 g/l

>  <DATABASE_ID>  (1) 
DB00841

>  <DATABASE_NAME>  (1) 
drugbank

>  <DRUGBANK_ID>  (1) 
DB00841

>  <DRUG_GROUPS>  (1) 
approved

>  <EXACT_MASS>  (1) 
301.167793607

>  <FORMULA>  (1) 
C18H23NO3

>  <GENERIC_NAME>  (1) 
Dobutamine

>  <INCHI_IDENTIFIER>  (1) 
InChI=1S/C18H23NO3/c1-13(2-3-14-4-7-16(20)8-5-14)19-11-10-15-6-9-17(21)18(22)12-15/h4-9,12-13,19-22H,2-3,10-11H2,1H3

>  <INCHI_KEY>  (1) 
JRWZLRBJNMZMFE-UHFFFAOYSA-N

>  <INTERNATIONAL_BRANDS>  (1) 
Dobuject; Dobusafe; Dobutamin; Dobutan; Dobutel; Dobutil; Dopmin; Inotrex

>  <JCHEM_ACCEPTOR_COUNT>  (1) 
4

>  <JCHEM_AVERAGE_POLARIZABILITY>  (1) 
34.43896019718562

>  <JCHEM_BIOAVAILABILITY>  (1) 
1

>  <JCHEM_DONOR_COUNT>  (1) 
4

>  <JCHEM_FORMAL_CHARGE>  (1) 
0

>  <JCHEM_GHOSE_FILTER>  (1) 
1

>  <JCHEM_IUPAC>  (1) 
4-(2-{[4-(4-hydroxyphenyl)butan-2-yl]amino}ethyl)benzene-1,2-diol

>  <JCHEM_LOGP>  (1) 
2.616255192047479

>  <JCHEM_MDDR_LIKE_RULE>  (1) 
0

>  <JCHEM_NUMBER_OF_RINGS>  (1) 
2

>  <JCHEM_PHYSIOLOGICAL_CHARGE>  (1) 
1

>  <JCHEM_PKA>  (1) 
10.793444335484486

>  <JCHEM_PKA_STRONGEST_ACIDIC>  (1) 
10.141794136413223

>  <JCHEM_PKA_STRONGEST_BASIC>  (1) 
9.27034282848593

>  <JCHEM_POLAR_SURFACE_AREA>  (1) 
72.72

>  <JCHEM_REFRACTIVITY>  (1) 
88.39110000000001

>  <JCHEM_ROTATABLE_BOND_COUNT>  (1) 
7

>  <JCHEM_RULE_OF_FIVE>  (1) 
1

>  <JCHEM_TRADITIONAL_IUPAC>  (1) 
dobutamine

>  <JCHEM_VEBER_RULE>  (1) 
0

>  <MOLECULAR_WEIGHT>  (1) 
301.3801

>  <PRODUCTS>  (1) 
DOBUTamine; DOBUTamine Hydrochloride in Dextrose; Dobutamine; Dobutamine 12.5mg/ml; Dobutamine Hydrochloride; Dobutamine Hydrochloride Injection-12.5mg/ml; Dobutamine Hydrochloride in Dextrose; Dobutamine Injection Sdz; Dobutamine Injection USP; Dobutrex

>  <SALTS>  (1) 
Dobutamine d-tartrate; Dobutamine hydrochloride

>  <SECONDARY_ACCESSION_NUMBERS>  (1) 
APRD00122

>  <SMILES>  (1) 
CC(CCC1=CC=C(O)C=C1)NCCC1=CC(O)=C(O)C=C1

>  <SYNONYMS>  (1) 
Dobutamin; Dobutamina; Dobutamine; Dobutaminum

$$$$
