645
     RDKit          2D

 48 49  0  0  0  0  0  0  0  0999 V2000
    2.3645    1.8563    0.0000 O   0  0  0  0  0  0  0  0  0  0  0  0
    3.0791   -1.8563    0.0000 O   0  0  0  0  0  0  0  0  0  0  0  0
    4.5080    3.0938    0.0000 N   0  0  0  0  0  0  0  0  0  0  0  0
    4.5080    3.9188    0.0000 C   0  0  0  0  0  0  0  0  0  0  0  0
    5.2224    2.6813    0.0000 C   0  0  0  0  0  0  0  0  0  0  0  0
    5.2224    4.3313    0.0000 C   0  0  0  0  0  0  0  0  0  0  0  0
    5.9370    3.0938    0.0000 C   0  0  0  0  0  0  0  0  0  0  0  0
    5.9370    3.9188    0.0000 C   0  0  0  0  0  0  0  0  0  0  0  0
    3.7935    2.6813    0.0000 C   0  0  0  0  0  0  0  0  0  0  0  0
    3.7935    1.8563    0.0000 C   0  0  0  0  0  0  0  0  0  0  0  0
    3.0791    1.4438    0.0000 C   0  0  0  0  0  0  0  0  0  0  0  0
    3.0791    0.6188    0.0000 C   0  0  0  0  0  0  0  0  0  0  0  0
    3.7935    0.2063    0.0000 C   0  0  0  0  0  0  0  0  0  0  0  0
    2.3645    0.2063    0.0000 C   0  0  0  0  0  0  0  0  0  0  0  0
    2.3645   -3.0938    0.0000 C   0  0  0  0  0  0  0  0  0  0  0  0
    3.0791   -1.0313    0.0000 C   0  0  0  0  0  0  0  0  0  0  0  0
    3.7935   -0.6188    0.0000 C   0  0  0  0  0  0  0  0  0  0  0  0
    2.3645   -0.6188    0.0000 C   0  0  0  0  0  0  0  0  0  0  0  0
    2.3645   -2.2688    0.0000 C   0  0  0  0  0  0  0  0  0  0  0  0
    1.6500   -3.5063    0.0000 C   0  0  0  0  0  0  0  0  0  0  0  0
    1.6500   -4.3313    0.0000 C   0  0  0  0  0  0  0  0  0  0  0  0
    0.0000    0.0000    0.0000 H   0  0  0  0  0  0  0  0  0  0  0  0
    0.0000    0.0000    0.0000 H   0  0  0  0  0  0  0  0  0  0  0  0
    0.0000    0.0000    0.0000 H   0  0  0  0  0  0  0  0  0  0  0  0
    0.0000    0.0000    0.0000 H   0  0  0  0  0  0  0  0  0  0  0  0
    0.0000    0.0000    0.0000 H   0  0  0  0  0  0  0  0  0  0  0  0
    0.0000    0.0000    0.0000 H   0  0  0  0  0  0  0  0  0  0  0  0
    0.0000    0.0000    0.0000 H   0  0  0  0  0  0  0  0  0  0  0  0
    0.0000    0.0000    0.0000 H   0  0  0  0  0  0  0  0  0  0  0  0
    0.0000    0.0000    0.0000 H   0  0  0  0  0  0  0  0  0  0  0  0
    0.0000    0.0000    0.0000 H   0  0  0  0  0  0  0  0  0  0  0  0
    0.0000    0.0000    0.0000 H   0  0  0  0  0  0  0  0  0  0  0  0
    0.0000    0.0000    0.0000 H   0  0  0  0  0  0  0  0  0  0  0  0
    0.0000    0.0000    0.0000 H   0  0  0  0  0  0  0  0  0  0  0  0
    0.0000    0.0000    0.0000 H   0  0  0  0  0  0  0  0  0  0  0  0
    0.0000    0.0000    0.0000 H   0  0  0  0  0  0  0  0  0  0  0  0
    0.0000    0.0000    0.0000 H   0  0  0  0  0  0  0  0  0  0  0  0
    0.0000    0.0000    0.0000 H   0  0  0  0  0  0  0  0  0  0  0  0
    0.0000    0.0000    0.0000 H   0  0  0  0  0  0  0  0  0  0  0  0
    0.0000    0.0000    0.0000 H   0  0  0  0  0  0  0  0  0  0  0  0
    0.0000    0.0000    0.0000 H   0  0  0  0  0  0  0  0  0  0  0  0
    0.0000    0.0000    0.0000 H   0  0  0  0  0  0  0  0  0  0  0  0
    0.0000    0.0000    0.0000 H   0  0  0  0  0  0  0  0  0  0  0  0
    0.0000    0.0000    0.0000 H   0  0  0  0  0  0  0  0  0  0  0  0
    0.0000    0.0000    0.0000 H   0  0  0  0  0  0  0  0  0  0  0  0
    0.0000    0.0000    0.0000 H   0  0  0  0  0  0  0  0  0  0  0  0
    0.0000    0.0000    0.0000 H   0  0  0  0  0  0  0  0  0  0  0  0
    0.0000    0.0000    0.0000 H   0  0  0  0  0  0  0  0  0  0  0  0
  1 11  2  0
  2 16  1  0
  2 19  1  0
  3  4  1  0
  3  5  1  0
  3  9  1  0
  4  6  1  0
  5  7  1  0
  6  8  1  0
  7  8  1  0
  9 10  1  0
 10 11  1  0
 11 12  1  0
 12 13  2  0
 12 14  1  0
 13 17  1  0
 14 18  2  0
 15 19  1  0
 15 20  1  0
 16 17  2  0
 16 18  1  0
 20 21  1  0
  4 22  1  0
  4 23  1  0
  5 24  1  0
  5 25  1  0
  6 26  1  0
  6 27  1  0
  7 28  1  0
  7 29  1  0
  8 30  1  0
  8 31  1  0
  9 32  1  0
  9 33  1  0
 10 34  1  0
 10 35  1  0
 13 36  1  0
 14 37  1  0
 15 38  1  0
 15 39  1  0
 17 40  1  0
 18 41  1  0
 19 42  1  0
 19 43  1  0
 20 44  1  0
 20 45  1  0
 21 46  1  0
 21 47  1  0
 21 48  1  0
M  END
>  <ALOGPS_LOGP>  (1) 
4.11

>  <ALOGPS_LOGS>  (1) 
-3.80

>  <ALOGPS_SOLUBILITY>  (1) 
4.60e-02 g/l

>  <DATABASE_ID>  (1) 
DB00645

>  <DATABASE_NAME>  (1) 
drugbank

>  <DRUGBANK_ID>  (1) 
DB00645

>  <DRUG_GROUPS>  (1) 
approved

>  <EXACT_MASS>  (1) 
289.204179113

>  <FORMULA>  (1) 
C18H27NO2

>  <GENERIC_NAME>  (1) 
Dyclonine

>  <INCHI_IDENTIFIER>  (1) 
InChI=1S/C18H27NO2/c1-2-3-15-21-17-9-7-16(8-10-17)18(20)11-14-19-12-5-4-6-13-19/h7-10H,2-6,11-15H2,1H3

>  <INCHI_KEY>  (1) 
BZEWSEKUUPWQDQ-UHFFFAOYSA-N

>  <INTERNATIONAL_BRANDS>  (1) 
Dyclone; Sucrets

>  <JCHEM_ACCEPTOR_COUNT>  (1) 
3

>  <JCHEM_AVERAGE_POLARIZABILITY>  (1) 
35.13910714431089

>  <JCHEM_BIOAVAILABILITY>  (1) 
1

>  <JCHEM_DONOR_COUNT>  (1) 
0

>  <JCHEM_FORMAL_CHARGE>  (1) 
0

>  <JCHEM_GHOSE_FILTER>  (1) 
1

>  <JCHEM_IUPAC>  (1) 
1-(4-butoxyphenyl)-3-(piperidin-1-yl)propan-1-one

>  <JCHEM_LOGP>  (1) 
3.675998439999999

>  <JCHEM_MDDR_LIKE_RULE>  (1) 
0

>  <JCHEM_NUMBER_OF_RINGS>  (1) 
2

>  <JCHEM_PHYSIOLOGICAL_CHARGE>  (1) 
1

>  <JCHEM_PKA_STRONGEST_ACIDIC>  (1) 
15.884370282015901

>  <JCHEM_PKA_STRONGEST_BASIC>  (1) 
8.36448774444315

>  <JCHEM_POLAR_SURFACE_AREA>  (1) 
29.54

>  <JCHEM_REFRACTIVITY>  (1) 
87.06800000000001

>  <JCHEM_ROTATABLE_BOND_COUNT>  (1) 
8

>  <JCHEM_RULE_OF_FIVE>  (1) 
1

>  <JCHEM_TRADITIONAL_IUPAC>  (1) 
dyclonine

>  <JCHEM_VEBER_RULE>  (1) 
1

>  <MOLECULAR_WEIGHT>  (1) 
289.4125

>  <PRODUCTS>  (1) 
Ambix First Aid; Benzethonium chloride Plus Dyclonine hydrochloride; Benzethonium chloride and Dyclonine hydrochloride; Cepacol Sore Throat; Cepacol Sore Throat Spray; PerioRinse; Skin Shield; Skin Shield Liquid Bandage; Sore Throat Relief; Sucrets Black Cherry; Sucrets Childrens Cherry; Sucrets Complete; Sucrets Complete Cool Citrus; Sucrets Complete Sore Throat, Cough and Irritation; Sucrets Complete Vapor Cherry; Sucrets Extra Strength Mint Flav.loz 3mg; Sucrets MS Wintergreen; Sucrets Regular Strength Lemon Flav.loz 2mg; Sucrets Regular Strength Lemon Flavoured Lozenges; Sucrets Sore Throat; Sucrets Sore Throat Spray 0.1% Cherry; Sucrets Wild Cherry; Sucrets for Kids; Tanac Medicated Gel

>  <SALTS>  (1) 
Dyclonine hydrochloride

>  <SECONDARY_ACCESSION_NUMBERS>  (1) 
APRD00940

>  <SMILES>  (1) 
CCCCOC1=CC=C(C=C1)C(=O)CCN1CCCCC1

>  <SYNONYMS>  (1) 
Diclonina; Dyclocaine; Dyclonin; Dyclonine; Dycloninum

$$$$
