823
     RDKit          2D

 60 63  0  0  1  0  0  0  0  0999 V2000
    8.9774    0.8591    0.0000 O   0  0  0  0  0  0  0  0  0  0  0  0
    3.0790   -2.3944    0.0000 O   0  0  0  0  0  0  0  0  0  0  0  0
    9.8152   -0.2985    0.0000 O   0  0  0  0  0  0  0  0  0  0  0  0
    2.3693   -1.1541    0.0000 O   0  0  0  0  0  0  0  0  0  0  0  0
    7.5284    0.1238    0.0000 C   0  0  0  0  0  0  0  0  0  0  0  0
    7.5284   -0.7012    0.0000 C   0  0  0  0  0  0  0  0  0  0  0  0
    6.8139   -1.1137    0.0000 C   0  0  0  0  0  0  0  0  0  0  0  0
    6.0994   -0.7012    0.0000 C   0  0  0  0  0  0  0  0  0  0  0  0
    8.3090    0.3753    0.0000 C   0  0  0  0  0  0  0  0  0  0  0  0
    6.8139    0.5363    0.0000 C   0  0  0  0  0  0  0  0  0  0  0  0
    8.3090   -0.9526    0.0000 C   0  0  0  0  0  0  0  0  0  0  0  0
    6.0994    0.1238    0.0000 C   0  0  0  0  0  0  0  0  0  0  0  0
    5.3487   -1.1193    0.0000 C   0  0  0  0  0  0  0  0  0  0  0  0
    8.7906   -0.2887    0.0000 C   0  0  0  0  0  0  0  0  0  0  0  0
    6.8272   -1.9729    0.0000 C   0  0  0  0  0  0  0  0  0  0  0  0
    7.5284    0.9489    0.0000 C   0  0  0  0  0  0  0  0  0  0  0  0
    5.3420   -1.9786    0.0000 C   0  0  0  0  0  0  0  0  0  0  0  0
    6.0862   -2.4083    0.0000 C   0  0  0  0  0  0  0  0  0  0  0  0
    4.5840   -0.6539    0.0000 C   0  0  0  0  0  0  0  0  0  0  0  0
    3.8019   -1.0895    0.0000 C   0  0  0  0  0  0  0  0  0  0  0  0
    8.0555    1.1604    0.0000 C   0  0  0  0  0  0  0  0  0  0  0  0
    4.5703   -2.4322    0.0000 C   0  0  0  0  0  0  0  0  0  0  0  0
    3.7951   -1.9846    0.0000 C   0  0  0  0  0  0  0  0  0  0  0  0
    9.7304    0.5222    0.0000 C   0  0  0  0  0  0  0  0  0  0  0  0
    7.8019    1.9454    0.0000 C   0  0  0  0  0  0  0  0  0  0  0  0
   10.3987    1.0059    0.0000 C   0  0  0  0  0  0  0  0  0  0  0  0
    2.3661   -1.9791    0.0000 C   0  0  0  0  0  0  0  0  0  0  0  0
    1.6500   -2.3888    0.0000 C   0  0  0  0  0  0  0  0  0  0  0  0
    0.0000    0.0000    0.0000 H   0  0  0  0  0  0  0  0  0  0  0  0
    0.0000    0.0000    0.0000 H   0  0  0  0  0  0  0  0  0  0  0  0
    0.0000    0.0000    0.0000 H   0  0  0  0  0  0  0  0  0  0  0  0
    0.0000    0.0000    0.0000 H   0  0  0  0  0  0  0  0  0  0  0  0
    0.0000    0.0000    0.0000 H   0  0  0  0  0  0  0  0  0  0  0  0
    0.0000    0.0000    0.0000 H   0  0  0  0  0  0  0  0  0  0  0  0
    0.0000    0.0000    0.0000 H   0  0  0  0  0  0  0  0  0  0  0  0
    0.0000    0.0000    0.0000 H   0  0  0  0  0  0  0  0  0  0  0  0
    0.0000    0.0000    0.0000 H   0  0  0  0  0  0  0  0  0  0  0  0
    0.0000    0.0000    0.0000 H   0  0  0  0  0  0  0  0  0  0  0  0
    0.0000    0.0000    0.0000 H   0  0  0  0  0  0  0  0  0  0  0  0
    0.0000    0.0000    0.0000 H   0  0  0  0  0  0  0  0  0  0  0  0
    0.0000    0.0000    0.0000 H   0  0  0  0  0  0  0  0  0  0  0  0
    0.0000    0.0000    0.0000 H   0  0  0  0  0  0  0  0  0  0  0  0
    0.0000    0.0000    0.0000 H   0  0  0  0  0  0  0  0  0  0  0  0
    0.0000    0.0000    0.0000 H   0  0  0  0  0  0  0  0  0  0  0  0
    0.0000    0.0000    0.0000 H   0  0  0  0  0  0  0  0  0  0  0  0
    0.0000    0.0000    0.0000 H   0  0  0  0  0  0  0  0  0  0  0  0
    0.0000    0.0000    0.0000 H   0  0  0  0  0  0  0  0  0  0  0  0
    0.0000    0.0000    0.0000 H   0  0  0  0  0  0  0  0  0  0  0  0
    0.0000    0.0000    0.0000 H   0  0  0  0  0  0  0  0  0  0  0  0
    0.0000    0.0000    0.0000 H   0  0  0  0  0  0  0  0  0  0  0  0
    0.0000    0.0000    0.0000 H   0  0  0  0  0  0  0  0  0  0  0  0
    0.0000    0.0000    0.0000 H   0  0  0  0  0  0  0  0  0  0  0  0
    0.0000    0.0000    0.0000 H   0  0  0  0  0  0  0  0  0  0  0  0
    0.0000    0.0000    0.0000 H   0  0  0  0  0  0  0  0  0  0  0  0
    0.0000    0.0000    0.0000 H   0  0  0  0  0  0  0  0  0  0  0  0
    0.0000    0.0000    0.0000 H   0  0  0  0  0  0  0  0  0  0  0  0
    0.0000    0.0000    0.0000 H   0  0  0  0  0  0  0  0  0  0  0  0
    0.0000    0.0000    0.0000 H   0  0  0  0  0  0  0  0  0  0  0  0
    0.0000    0.0000    0.0000 H   0  0  0  0  0  0  0  0  0  0  0  0
    0.0000    0.0000    0.0000 H   0  0  0  0  0  0  0  0  0  0  0  0
  9  1  1  1
  1 24  1  0
 23  2  1  1
  2 27  1  0
  3 24  2  0
  4 27  2  0
  5  6  1  0
  5  9  1  0
  5 10  1  0
  5 16  1  1
  6  7  1  0
  6 11  1  0
  7  8  1  0
  7 15  1  0
  8 12  1  0
  8 13  1  0
  9 14  1  0
  9 21  1  0
 10 12  1  0
 11 14  1  0
 13 17  1  0
 13 19  1  0
 15 18  1  0
 17 18  1  0
 17 22  2  0
 19 20  1  0
 20 23  1  0
 21 25  3  0
 22 23  1  0
 24 26  1  0
 27 28  1  0
  6 29  1  6
  7 30  1  1
  8 31  1  6
 10 32  1  0
 10 33  1  0
 11 34  1  0
 11 35  1  0
 12 36  1  0
 12 37  1  0
 13 38  1  1
 14 39  1  0
 14 40  1  0
 15 41  1  0
 15 42  1  0
 16 43  1  0
 16 44  1  0
 16 45  1  0
 18 46  1  0
 18 47  1  0
 19 48  1  0
 19 49  1  0
 20 50  1  0
 20 51  1  0
 22 52  1  0
 23 53  1  0
 25 54  1  0
 26 55  1  0
 26 56  1  0
 26 57  1  0
 28 58  1  0
 28 59  1  0
 28 60  1  0
M  END
>  <ALOGPS_LOGP>  (1) 
3.99

>  <ALOGPS_LOGS>  (1) 
-4.99

>  <ALOGPS_SOLUBILITY>  (1) 
3.97e-03 g/l

>  <DATABASE_ID>  (1) 
DB00823

>  <DATABASE_NAME>  (1) 
drugbank

>  <DRUGBANK_ID>  (1) 
DB00823

>  <DRUG_GROUPS>  (1) 
approved

>  <EXACT_MASS>  (1) 
384.230059512

>  <FORMULA>  (1) 
C24H32O4

>  <GENERIC_NAME>  (1) 
Ethynodiol diacetate

>  <INCHI_IDENTIFIER>  (1) 
InChI=1S/C24H32O4/c1-5-24(28-16(3)26)13-11-22-21-8-6-17-14-18(27-15(2)25)7-9-19(17)20(21)10-12-23(22,24)4/h1,14,18-22H,6-13H2,2-4H3/t18-,19-,20+,21+,22-,23-,24-/m0/s1

>  <INCHI_KEY>  (1) 
ONKUMRGIYFNPJW-KIEAKMPYSA-N

>  <INTERNATIONAL_BRANDS>  (1) 
Conova; Continuin; Dernulen; Femulen; Luteonorm; Luto-Metrodiol; Metrodiol

>  <JCHEM_ACCEPTOR_COUNT>  (1) 
2

>  <JCHEM_AVERAGE_POLARIZABILITY>  (1) 
44.109316003685606

>  <JCHEM_BIOAVAILABILITY>  (1) 
1

>  <JCHEM_DONOR_COUNT>  (1) 
0

>  <JCHEM_FORMAL_CHARGE>  (1) 
0

>  <JCHEM_GHOSE_FILTER>  (1) 
1

>  <JCHEM_IUPAC>  (1) 
(1S,2R,5S,10R,11S,14R,15S)-5-(acetyloxy)-14-ethynyl-15-methyltetracyclo[8.7.0.0²,⁷.0¹¹,¹⁵]heptadec-6-en-14-yl acetate

>  <JCHEM_LOGP>  (1) 
3.6881402700000017

>  <JCHEM_MDDR_LIKE_RULE>  (1) 
0

>  <JCHEM_NUMBER_OF_RINGS>  (1) 
4

>  <JCHEM_PHYSIOLOGICAL_CHARGE>  (1) 
0

>  <JCHEM_PKA_STRONGEST_BASIC>  (1) 
-6.728312793878715

>  <JCHEM_POLAR_SURFACE_AREA>  (1) 
52.6

>  <JCHEM_REFRACTIVITY>  (1) 
106.62490000000001

>  <JCHEM_ROTATABLE_BOND_COUNT>  (1) 
4

>  <JCHEM_RULE_OF_FIVE>  (1) 
1

>  <JCHEM_TRADITIONAL_IUPAC>  (1) 
ethynodiol diacetate

>  <JCHEM_VEBER_RULE>  (1) 
0

>  <MOLECULAR_WEIGHT>  (1) 
384.5085

>  <PRODUCTS>  (1) 
Demulen 30 (21 Day Pack); Demulen 30 (28 Day Pack); Demulen 50 (21 Day Pack); Demulen 50 (28 Day Pack); Ethynodiol Diacetate and Ethinyl Estradiol; Kelnor 1/35; Zovia 1/35; Zovia 1/35E-28; Zovia 1/50E-28

>  <SECONDARY_ACCESSION_NUMBERS>  (1) 
APRD00760

>  <SMILES>  (1) 
[H][C@@]12CC[C@@](OC(C)=O)(C#C)[C@@]1(C)CC[C@]1([H])[C@@]3([H])CC[C@H](OC(C)=O)C=C3CC[C@@]21[H]

>  <SYNONYMS>  (1) 
17α-Ethynyl-19-norandrost-4-ene-3β,17-beta-diol diacetate; 17α-Ethynyl-3,17-dihydroxy-4-estrene diacetate; 17α-Ethynyl-4-estrene-3β,17β-diol diacetate; 17α-Ethynylestr-4-ene-3β,17β-diol acetate; 19-Nor-17α-pregn-4-en-20-yne-3β,17-diol diacetate; 3β, 17β-Diacetoxy-17α-ethynyl-4-oestrene; 3β,17β-Diacetoxy-19-nor-17α-pregn-4-en-20-yne; Etynodiol acetate; Etynodiol diacetate

$$$$
