500
     RDKit          2D

 34 35  0  0  0  0  0  0  0  0999 V2000
    1.6500    0.5368    0.0000 O   0  0  0  0  0  0  0  0  0  0  0  0
    5.4638    3.1223    0.0000 O   0  0  0  0  0  0  0  0  0  0  0  0
    5.6132    1.7013    0.0000 O   0  0  0  0  0  0  0  0  0  0  0  0
    3.1652    1.3572    0.0000 N   0  0  0  0  0  0  0  0  0  0  0  0
    3.9722    1.5287    0.0000 C   0  0  0  0  0  0  0  0  0  0  0  0
    3.0790    0.5368    0.0000 C   0  0  0  0  0  0  0  0  0  0  0  0
    4.3847    0.8143    0.0000 C   0  0  0  0  0  0  0  0  0  0  0  0
    3.8327    0.2011    0.0000 C   0  0  0  0  0  0  0  0  0  0  0  0
    4.3078    2.2824    0.0000 C   0  0  0  0  0  0  0  0  0  0  0  0
    2.3645    0.1242    0.0000 C   0  0  0  0  0  0  0  0  0  0  0  0
    2.5521    1.9092    0.0000 C   0  0  0  0  0  0  0  0  0  0  0  0
    2.3645   -0.7008    0.0000 C   0  0  0  0  0  0  0  0  0  0  0  0
    1.6500   -1.1133    0.0000 C   0  0  0  0  0  0  0  0  0  0  0  0
    3.0790   -1.1133    0.0000 C   0  0  0  0  0  0  0  0  0  0  0  0
    2.3645   -2.3508    0.0000 C   0  0  0  0  0  0  0  0  0  0  0  0
    1.6500   -1.9383    0.0000 C   0  0  0  0  0  0  0  0  0  0  0  0
    3.0790   -1.9383    0.0000 C   0  0  0  0  0  0  0  0  0  0  0  0
    5.1283    2.3687    0.0000 C   0  0  0  0  0  0  0  0  0  0  0  0
    2.3645   -3.1758    0.0000 C   0  0  0  0  0  0  0  0  0  0  0  0
    0.0000    0.0000    0.0000 H   0  0  0  0  0  0  0  0  0  0  0  0
    0.0000    0.0000    0.0000 H   0  0  0  0  0  0  0  0  0  0  0  0
    0.0000    0.0000    0.0000 H   0  0  0  0  0  0  0  0  0  0  0  0
    0.0000    0.0000    0.0000 H   0  0  0  0  0  0  0  0  0  0  0  0
    0.0000    0.0000    0.0000 H   0  0  0  0  0  0  0  0  0  0  0  0
    0.0000    0.0000    0.0000 H   0  0  0  0  0  0  0  0  0  0  0  0
    0.0000    0.0000    0.0000 H   0  0  0  0  0  0  0  0  0  0  0  0
    0.0000    0.0000    0.0000 H   0  0  0  0  0  0  0  0  0  0  0  0
    0.0000    0.0000    0.0000 H   0  0  0  0  0  0  0  0  0  0  0  0
    0.0000    0.0000    0.0000 H   0  0  0  0  0  0  0  0  0  0  0  0
    0.0000    0.0000    0.0000 H   0  0  0  0  0  0  0  0  0  0  0  0
    0.0000    0.0000    0.0000 H   0  0  0  0  0  0  0  0  0  0  0  0
    0.0000    0.0000    0.0000 H   0  0  0  0  0  0  0  0  0  0  0  0
    0.0000    0.0000    0.0000 H   0  0  0  0  0  0  0  0  0  0  0  0
    0.0000    0.0000    0.0000 H   0  0  0  0  0  0  0  0  0  0  0  0
  1 10  2  0
  2 18  1  0
  3 18  2  0
  4  5  1  0
  4  6  1  0
  4 11  1  0
  5  7  2  0
  5  9  1  0
  6  8  2  0
  6 10  1  0
  7  8  1  0
  9 18  1  0
 10 12  1  0
 12 13  2  0
 12 14  1  0
 13 16  1  0
 14 17  2  0
 15 16  2  0
 15 17  1  0
 15 19  1  0
  2 20  1  0
  7 21  1  0
  8 22  1  0
  9 23  1  0
  9 24  1  0
 11 25  1  0
 11 26  1  0
 11 27  1  0
 13 28  1  0
 14 29  1  0
 16 30  1  0
 17 31  1  0
 19 32  1  0
 19 33  1  0
 19 34  1  0
M  END
>  <ALOGPS_LOGP>  (1) 
2.81

>  <ALOGPS_LOGS>  (1) 
-3.29

>  <ALOGPS_SOLUBILITY>  (1) 
1.31e-01 g/l

>  <DATABASE_ID>  (1) 
DB00500

>  <DATABASE_NAME>  (1) 
drugbank

>  <DRUGBANK_ID>  (1) 
DB00500

>  <DRUG_GROUPS>  (1) 
approved

>  <EXACT_MASS>  (1) 
257.105193351

>  <FORMULA>  (1) 
C15H15NO3

>  <GENERIC_NAME>  (1) 
Tolmetin

>  <INCHI_IDENTIFIER>  (1) 
InChI=1S/C15H15NO3/c1-10-3-5-11(6-4-10)15(19)13-8-7-12(16(13)2)9-14(17)18/h3-8H,9H2,1-2H3,(H,17,18)

>  <INCHI_KEY>  (1) 
UPSPUYADGBWSHF-UHFFFAOYSA-N

>  <INTERNATIONAL_BRANDS>  (1) 
Tolectin; Tolectin DS

>  <JCHEM_ACCEPTOR_COUNT>  (1) 
3

>  <JCHEM_AVERAGE_POLARIZABILITY>  (1) 
27.6735065796209

>  <JCHEM_BIOAVAILABILITY>  (1) 
1

>  <JCHEM_DONOR_COUNT>  (1) 
1

>  <JCHEM_FORMAL_CHARGE>  (1) 
0

>  <JCHEM_GHOSE_FILTER>  (1) 
1

>  <JCHEM_IUPAC>  (1) 
2-[1-methyl-5-(4-methylbenzoyl)-1H-pyrrol-2-yl]acetic acid

>  <JCHEM_LOGP>  (1) 
2.7273309576666667

>  <JCHEM_MDDR_LIKE_RULE>  (1) 
0

>  <JCHEM_NUMBER_OF_RINGS>  (1) 
2

>  <JCHEM_PHYSIOLOGICAL_CHARGE>  (1) 
-1

>  <JCHEM_PKA_STRONGEST_ACIDIC>  (1) 
3.9581683675853068

>  <JCHEM_PKA_STRONGEST_BASIC>  (1) 
-7.781456553696511

>  <JCHEM_POLAR_SURFACE_AREA>  (1) 
59.3

>  <JCHEM_REFRACTIVITY>  (1) 
72.3928

>  <JCHEM_ROTATABLE_BOND_COUNT>  (1) 
4

>  <JCHEM_RULE_OF_FIVE>  (1) 
1

>  <JCHEM_TRADITIONAL_IUPAC>  (1) 
tolmetin

>  <JCHEM_VEBER_RULE>  (1) 
0

>  <MOLECULAR_WEIGHT>  (1) 
257.2845

>  <PRODUCTS>  (1) 
Novo-tolmetin Capsules 400mg; Tolectin 200 Tab 200mg; Tolectin 400 Cap 400mg; Tolectin Tab 600mg; Tolmetin Sodium

>  <SALTS>  (1) 
Tolmetin sodium

>  <SECONDARY_ACCESSION_NUMBERS>  (1) 
APRD01268

>  <SMILES>  (1) 
CN1C(CC(O)=O)=CC=C1C(=O)C1=CC=C(C)C=C1

>  <SYNONYMS>  (1) 
Tolmetin; Tolmetina; Tolm√©tine; Tolmetino; Tolmetinum

$$$$
