908
     RDKit          2D

 48 51  0  0  1  0  0  0  0  0999 V2000
    6.8986    0.0158    0.0000 O   0  0  0  0  0  0  0  0  0  0  0  0
    9.0964    1.2335    0.0000 O   0  0  0  0  0  0  0  0  0  0  0  0
    5.2561   -1.6060    0.0000 N   0  0  0  0  0  0  0  0  0  0  0  0
    6.1841    2.9033    0.0000 N   0  0  0  0  0  0  0  0  0  0  0  0
    4.4592   -1.3925    0.0000 C   0  0  0  0  0  0  0  0  0  0  0  0
    5.4696    0.0158    0.0000 C   0  0  0  0  0  0  0  0  0  0  0  0
    4.6727    0.2294    0.0000 C   0  0  0  0  0  0  0  0  0  0  0  0
    3.0302   -2.2175    0.0000 C   0  0  0  0  0  0  0  0  0  0  0  0
    5.3523   -2.8396    0.0000 C   0  0  0  0  0  0  0  0  0  0  0  0
    3.4427   -2.9320    0.0000 C   0  0  0  0  0  0  0  0  0  0  0  0
    6.0668   -2.4271    0.0000 C   0  0  0  0  0  0  0  0  0  0  0  0
    6.1841    0.4283    0.0000 C   0  0  0  0  0  0  0  0  0  0  0  0
    2.2334   -2.0040    0.0000 C   0  0  0  0  0  0  0  0  0  0  0  0
    6.1841    1.2533    0.0000 C   0  0  0  0  0  0  0  0  0  0  0  0
    1.6500   -2.5874    0.0000 C   0  0  0  0  0  0  0  0  0  0  0  0
    6.8986    1.6658    0.0000 C   0  0  0  0  0  0  0  0  0  0  0  0
    5.4696    1.6658    0.0000 C   0  0  0  0  0  0  0  0  0  0  0  0
    6.8986    2.4908    0.0000 C   0  0  0  0  0  0  0  0  0  0  0  0
    7.6360    1.2248    0.0000 C   0  0  0  0  0  0  0  0  0  0  0  0
    5.4696    2.4908    0.0000 C   0  0  0  0  0  0  0  0  0  0  0  0
    7.6360    2.9320    0.0000 C   0  0  0  0  0  0  0  0  0  0  0  0
    8.3836    1.6487    0.0000 C   0  0  0  0  0  0  0  0  0  0  0  0
    8.3836    2.5081    0.0000 C   0  0  0  0  0  0  0  0  0  0  0  0
    9.8125    1.6432    0.0000 C   0  0  0  0  0  0  0  0  0  0  0  0
    0.0000    0.0000    0.0000 H   0  0  0  0  0  0  0  0  0  0  0  0
    0.0000    0.0000    0.0000 H   0  0  0  0  0  0  0  0  0  0  0  0
    0.0000    0.0000    0.0000 H   0  0  0  0  0  0  0  0  0  0  0  0
    0.0000    0.0000    0.0000 H   0  0  0  0  0  0  0  0  0  0  0  0
    0.0000    0.0000    0.0000 H   0  0  0  0  0  0  0  0  0  0  0  0
    0.0000    0.0000    0.0000 H   0  0  0  0  0  0  0  0  0  0  0  0
    0.0000    0.0000    0.0000 H   0  0  0  0  0  0  0  0  0  0  0  0
    0.0000    0.0000    0.0000 H   0  0  0  0  0  0  0  0  0  0  0  0
    0.0000    0.0000    0.0000 H   0  0  0  0  0  0  0  0  0  0  0  0
    0.0000    0.0000    0.0000 H   0  0  0  0  0  0  0  0  0  0  0  0
    0.0000    0.0000    0.0000 H   0  0  0  0  0  0  0  0  0  0  0  0
    0.0000    0.0000    0.0000 H   0  0  0  0  0  0  0  0  0  0  0  0
    0.0000    0.0000    0.0000 H   0  0  0  0  0  0  0  0  0  0  0  0
    0.0000    0.0000    0.0000 H   0  0  0  0  0  0  0  0  0  0  0  0
    0.0000    0.0000    0.0000 H   0  0  0  0  0  0  0  0  0  0  0  0
    0.0000    0.0000    0.0000 H   0  0  0  0  0  0  0  0  0  0  0  0
    0.0000    0.0000    0.0000 H   0  0  0  0  0  0  0  0  0  0  0  0
    0.0000    0.0000    0.0000 H   0  0  0  0  0  0  0  0  0  0  0  0
    0.0000    0.0000    0.0000 H   0  0  0  0  0  0  0  0  0  0  0  0
    0.0000    0.0000    0.0000 H   0  0  0  0  0  0  0  0  0  0  0  0
    0.0000    0.0000    0.0000 H   0  0  0  0  0  0  0  0  0  0  0  0
    0.0000    0.0000    0.0000 H   0  0  0  0  0  0  0  0  0  0  0  0
    0.0000    0.0000    0.0000 H   0  0  0  0  0  0  0  0  0  0  0  0
    0.0000    0.0000    0.0000 H   0  0  0  0  0  0  0  0  0  0  0  0
 12  1  1  1
  2 22  1  0
  2 24  1  0
  3  6  1  0
  3 10  1  0
  3 11  1  0
  4 18  2  0
  4 20  1  0
  5  7  1  0
  5  8  1  0
  5  9  1  0
  6  7  1  0
  6 12  1  0
  8 10  1  0
  8 13  1  6
  9 11  1  0
 12 14  1  0
 13 15  2  3
 14 16  2  0
 14 17  1  0
 16 18  1  0
 16 19  1  0
 17 20  2  0
 18 21  1  0
 19 22  2  0
 21 23  2  0
 22 23  1  0
  1 25  1  0
  5 26  1  1
  6 27  1  1
  7 28  1  0
  7 29  1  0
  8 30  1  0
  9 31  1  0
  9 32  1  0
 10 33  1  0
 10 34  1  0
 11 35  1  0
 11 36  1  0
 12 37  1  0
 13 38  1  0
 15 39  1  0
 15 40  1  0
 17 41  1  0
 19 42  1  0
 20 43  1  0
 21 44  1  0
 23 45  1  0
 24 46  1  0
 24 47  1  0
 24 48  1  0
M  END
>  <ALOGPS_LOGP>  (1) 
2.82

>  <ALOGPS_LOGS>  (1) 
-2.99

>  <ALOGPS_SOLUBILITY>  (1) 
3.34e-01 g/l

>  <DATABASE_ID>  (1) 
DB00908

>  <DATABASE_NAME>  (1) 
drugbank

>  <DRUGBANK_ID>  (1) 
DB00908

>  <DRUG_GROUPS>  (1) 
approved

>  <EXACT_MASS>  (1) 
324.183778022

>  <FORMULA>  (1) 
C20H24N2O2

>  <GENERIC_NAME>  (1) 
Quinidine

>  <INCHI_IDENTIFIER>  (1) 
InChI=1S/C20H24N2O2/c1-3-13-12-22-9-7-14(13)10-19(22)20(23)16-6-8-21-18-5-4-15(24-2)11-17(16)18/h3-6,8,11,13-14,19-20,23H,1,7,9-10,12H2,2H3/t13-,14-,19+,20-/m0/s1

>  <INCHI_KEY>  (1) 
LOUPRKONTZGTKE-LHHVKLHASA-N

>  <INTERNATIONAL_BRANDS>  (1) 
Cardioquin; Kinidin; Quin-Release; Quinaglute; Quinalan; Quinicardine; Quinidex

>  <JCHEM_ACCEPTOR_COUNT>  (1) 
4

>  <JCHEM_AVERAGE_POLARIZABILITY>  (1) 
35.82062136932111

>  <JCHEM_BIOAVAILABILITY>  (1) 
1

>  <JCHEM_DONOR_COUNT>  (1) 
1

>  <JCHEM_FORMAL_CHARGE>  (1) 
0

>  <JCHEM_GHOSE_FILTER>  (1) 
1

>  <JCHEM_IUPAC>  (1) 
(S)-[(2R,4S,5R)-5-ethenyl-1-azabicyclo[2.2.2]octan-2-yl](6-methoxyquinolin-4-yl)methanol

>  <JCHEM_LOGP>  (1) 
2.513463950666668

>  <JCHEM_MDDR_LIKE_RULE>  (1) 
0

>  <JCHEM_NUMBER_OF_RINGS>  (1) 
4

>  <JCHEM_PHYSIOLOGICAL_CHARGE>  (1) 
1

>  <JCHEM_PKA_STRONGEST_ACIDIC>  (1) 
13.892048067691277

>  <JCHEM_PKA_STRONGEST_BASIC>  (1) 
9.045547511829293

>  <JCHEM_POLAR_SURFACE_AREA>  (1) 
45.59

>  <JCHEM_REFRACTIVITY>  (1) 
94.6936

>  <JCHEM_ROTATABLE_BOND_COUNT>  (1) 
4

>  <JCHEM_RULE_OF_FIVE>  (1) 
1

>  <JCHEM_TRADITIONAL_IUPAC>  (1) 
quinidine

>  <JCHEM_VEBER_RULE>  (1) 
0

>  <MOLECULAR_WEIGHT>  (1) 
324.4168

>  <PRODUCTS>  (1) 
Apo Quinidine Tab 200mg; Apo-quin-G Tab 325mg; Cardioquin Tablets; Novo-quinidin 200mg; Nuedexta; Quinate Tab 325mg; Quinidex Extentabs Srt 300mg; Quinidine 200 Tab; Quinidine Gluconate; Quinidine Gluconate for Inj 80mg/ml USP; Quinidine Sulfate; Quinidine Sulfate 200mg; Quinidine Sulfate Injection 190mg/ml; Quinidine Sulfate Tab 200mg

>  <SALTS>  (1) 
Quinidine gluconate; Quinidine hydrochloride; Quinidine polygalacturonate; Quinidine sulfate

>  <SECONDARY_ACCESSION_NUMBERS>  (1) 
APRD00136

>  <SMILES>  (1) 
[H][C@@]12CCN(C[C@@H]1C=C)[C@]([H])(C2)[C@@H](O)C1=C2C=C(OC)C=CC2=NC=C1

>  <SYNONYMS>  (1) 
(+)-quinidine; (8R,9S)-Quinidine; (R)-(6-Methoxyquinolin-4-yl)((3S,4R,7S)-3-vinylquinuclidin-7-yl)methanol; (S)-(6-Methoxy-quinolin-4-yl)-((2R,5R)-5-vinyl-1-aza-bicyclo[2.2.2]oct-2-yl)-methanol; (S)-(6-Methoxyquinolin-4-yl)((2R,5R)-5-vinylquinuclidin-2-yl)methanol; 6-methoxy-α-(5-vinyl-2-quinuclidinyl)-4-quinolinemethanol; beta-Quinine; Chinidin; Chinidinum; CIN-QUIN; Conchinin; Conquinine; Pitayine; Quinidina; α-(6-methoxy-4-quinolyl)-5-vinyl-2-quinuclidinemethanol; β-quinine

$$$$
