
     RDKit          2D

 44 48  0  0  0  0  0  0  0  0999 V2000
    0.9481   -1.5735    0.0000 C   0  0  0  0  0  0  0  0  0  0  0  0
    1.6626   -1.1611    0.0000 N   0  0  0  0  0  0  0  0  0  0  0  0
    1.6626   -0.3360    0.0000 C   0  0  0  0  0  0  0  0  0  0  0  0
    0.9481    0.0764    0.0000 C   0  0  0  0  0  0  0  0  0  0  0  0
    0.2337   -0.3360    0.0000 C   0  0  0  0  0  0  0  0  0  0  0  0
    0.2337   -1.1611    0.0000 C   0  0  0  0  0  0  0  0  0  0  0  0
    2.3771    0.0764    0.0000 C   0  0  0  0  0  0  0  0  0  0  0  0
    3.0916   -0.3360    0.0000 C   0  0  0  0  0  0  0  0  0  0  0  0
    3.0916   -1.1611    0.0000 C   0  0  0  0  0  0  0  0  0  0  0  0
    2.3771   -1.5735    0.0000 C   0  0  0  0  0  0  0  0  0  0  0  0
    3.8060   -1.5734    0.0000 O   0  0  0  0  0  0  0  0  0  0  0  0
   -0.1787    0.3783    0.0000 O   0  0  0  0  0  0  0  0  0  0  0  0
   -1.0037    0.3783    0.0000 C   0  0  0  0  0  0  0  0  0  0  0  0
   -1.4162    1.0928    0.0000 C   0  0  0  0  0  0  0  0  0  0  0  0
   -1.4162   -0.3360    0.0000 O   0  0  0  0  0  0  0  0  0  0  0  0
   -1.0807    1.8465    0.0000 C   0  0  0  0  0  0  0  0  0  0  0  0
   -1.6938    2.3986    0.0000 N   0  0  0  0  0  0  0  0  0  0  0  0
   -2.4082    1.9861    0.0000 C   0  0  0  0  0  0  0  0  0  0  0  0
   -2.2367    1.1791    0.0000 C   0  0  0  0  0  0  0  0  0  0  0  0
   -3.1929    2.2410    0.0000 C   0  0  0  0  0  0  0  0  0  0  0  0
   -3.8060    1.6890    0.0000 C   0  0  0  0  0  0  0  0  0  0  0  0
   -3.6344    0.8820    0.0000 C   0  0  0  0  0  0  0  0  0  0  0  0
   -2.8498    0.6270    0.0000 C   0  0  0  0  0  0  0  0  0  0  0  0
    1.5891   -1.9258    0.0000 C   0  0  0  0  0  0  0  0  0  0  0  0
    0.0000    0.0000    0.0000 H   0  0  0  0  0  0  0  0  0  0  0  0
    0.0000    0.0000    0.0000 H   0  0  0  0  0  0  0  0  0  0  0  0
    0.0000    0.0000    0.0000 H   0  0  0  0  0  0  0  0  0  0  0  0
    0.0000    0.0000    0.0000 H   0  0  0  0  0  0  0  0  0  0  0  0
    0.0000    0.0000    0.0000 H   0  0  0  0  0  0  0  0  0  0  0  0
    0.0000    0.0000    0.0000 H   0  0  0  0  0  0  0  0  0  0  0  0
    0.0000    0.0000    0.0000 H   0  0  0  0  0  0  0  0  0  0  0  0
    0.0000    0.0000    0.0000 H   0  0  0  0  0  0  0  0  0  0  0  0
    0.0000    0.0000    0.0000 H   0  0  0  0  0  0  0  0  0  0  0  0
    0.0000    0.0000    0.0000 H   0  0  0  0  0  0  0  0  0  0  0  0
    0.0000    0.0000    0.0000 H   0  0  0  0  0  0  0  0  0  0  0  0
    0.0000    0.0000    0.0000 H   0  0  0  0  0  0  0  0  0  0  0  0
    0.0000    0.0000    0.0000 H   0  0  0  0  0  0  0  0  0  0  0  0
    0.0000    0.0000    0.0000 H   0  0  0  0  0  0  0  0  0  0  0  0
    0.0000    0.0000    0.0000 H   0  0  0  0  0  0  0  0  0  0  0  0
    0.0000    0.0000    0.0000 H   0  0  0  0  0  0  0  0  0  0  0  0
    0.0000    0.0000    0.0000 H   0  0  0  0  0  0  0  0  0  0  0  0
    0.0000    0.0000    0.0000 H   0  0  0  0  0  0  0  0  0  0  0  0
    0.0000    0.0000    0.0000 H   0  0  0  0  0  0  0  0  0  0  0  0
    0.0000    0.0000    0.0000 H   0  0  0  0  0  0  0  0  0  0  0  0
  1  2  1  0
  3  4  1  0
  4  5  1  0
  5  6  1  0
  6  1  1  0
 10  2  1  0
  2  3  1  0
  3  7  1  0
  7  8  1  0
  8  9  1  0
  9 10  1  0
  9 11  2  0
  5 12  1  6
 12 13  1  0
 13 14  1  0
 13 15  2  0
 14 16  2  0
 14 19  1  0
 16 17  1  0
 17 18  1  0
 18 20  1  0
 19 18  2  0
 23 19  1  0
 20 21  2  0
 21 22  1  0
 22 23  2  0
  1 24  1  0
  8 24  1  0
  1 25  1  1
  3 26  1  1
  4 27  1  0
  4 28  1  0
  5 29  1  0
  6 30  1  0
  6 31  1  0
  7 32  1  0
  7 33  1  0
  8 34  1  1
 10 35  1  0
 10 36  1  0
 16 37  1  0
 17 38  1  0
 20 39  1  0
 21 40  1  0
 22 41  1  0
 23 42  1  0
 24 43  1  0
 24 44  1  0
M  END
>  <ALOGPS_LOGP>  (1) 
2.41

>  <ALOGPS_LOGS>  (1) 
-3.09

>  <ALOGPS_SOLUBILITY>  (1) 
2.61e-01 g/l

>  <DATABASE_ID>  (1) 
DB00757

>  <DATABASE_NAME>  (1) 
drugbank

>  <DRUGBANK_ID>  (1) 
DB00757

>  <DRUG_GROUPS>  (1) 
approved

>  <EXACT_MASS>  (1) 
324.147392512

>  <FORMULA>  (1) 
C19H20N2O3

>  <GENERIC_NAME>  (1) 
Dolasetron

>  <INCHI_IDENTIFIER>  (1) 
InChI=1S/C19H20N2O3/c22-18-10-21-12-5-11(18)6-13(21)8-14(7-12)24-19(23)16-9-20-17-4-2-1-3-15(16)17/h1-4,9,11-14,20H,5-8,10H2/t11-,12-,13+,14+

>  <INCHI_KEY>  (1) 
UKTAZPQNNNJVKR-KJGYPYNMSA-N

>  <INTERNATIONAL_BRANDS>  (1) 
Anemet; Zamanon

>  <JCHEM_ACCEPTOR_COUNT>  (1) 
3

>  <JCHEM_ATOM_COUNT>  (1) 
44

>  <JCHEM_AVERAGE_POLARIZABILITY>  (1) 
35.021974659839564

>  <JCHEM_BIOAVAILABILITY>  (1) 
1

>  <JCHEM_DONOR_COUNT>  (1) 
1

>  <JCHEM_FORMAL_CHARGE>  (1) 
0

>  <JCHEM_GHOSE_FILTER>  (1) 
1

>  <JCHEM_IUPAC>  (1) 
(1s,3R,5r,7S)-10-oxo-8-azatricyclo[5.3.1.0³,⁸]undecan-5-yl 1H-indole-3-carboxylate

>  <JCHEM_LOGP>  (1) 
2.3258902303333335

>  <JCHEM_MDDR_LIKE_RULE>  (1) 
0

>  <JCHEM_NUMBER_OF_RINGS>  (1) 
5

>  <JCHEM_PHYSIOLOGICAL_CHARGE>  (1) 
0

>  <JCHEM_PKA>  (1) 
18.246578940288476

>  <JCHEM_PKA_STRONGEST_ACIDIC>  (1) 
12.182263656379886

>  <JCHEM_PKA_STRONGEST_BASIC>  (1) 
5.683557170415574

>  <JCHEM_POLAR_SURFACE_AREA>  (1) 
62.4

>  <JCHEM_REFRACTIVITY>  (1) 
89.33520000000001

>  <JCHEM_ROTATABLE_BOND_COUNT>  (1) 
3

>  <JCHEM_RULE_OF_FIVE>  (1) 
1

>  <JCHEM_TRADITIONAL_IUPAC>  (1) 
(1s,3R,5r,7S)-10-oxo-8-azatricyclo[5.3.1.0³,⁸]undecan-5-yl 1H-indole-3-carboxylate

>  <JCHEM_VEBER_RULE>  (1) 
0

>  <MOLECULAR_WEIGHT>  (1) 
324.38

>  <PRODUCTS>  (1) 
Anzemet; Anzemet Injection 20 mg/ml

>  <SALTS>  (1) 
Dolasetron Mesylate

>  <SECONDARY_ACCESSION_NUMBERS>  (1) 
APRD00518

>  <SMILES>  (1) 
[H][C@@]1(C[C@@]2([H])C[C@]3([H])C[C@@]([H])(C1)N2CC3=O)OC(=O)C1=CNC2=C1C=CC=C2

>  <SYNONYMS>  (1) 
Dolasetron; Dolasétron; Dolasetronum

$$$$
