619
     RDKit          2D

 68 72  0  0  0  0  0  0  0  0999 V2000
    5.9370   -0.4125    0.0000 O   0  0  0  0  0  0  0  0  0  0  0  0
    2.3645   -2.4751    0.0000 N   0  0  0  0  0  0  0  0  0  0  0  0
    2.3645   -4.1251    0.0000 N   0  0  0  0  0  0  0  0  0  0  0  0
    5.2224    0.8250    0.0000 N   0  0  0  0  0  0  0  0  0  0  0  0
    6.6515    3.3001    0.0000 N   0  0  0  0  0  0  0  0  0  0  0  0
    5.2224    3.3001    0.0000 N   0  0  0  0  0  0  0  0  0  0  0  0
    5.9370    4.5376    0.0000 N   0  0  0  0  0  0  0  0  0  0  0  0
    3.0791    2.0625    0.0000 N   0  0  0  0  0  0  0  0  0  0  0  0
    1.6500   -2.8876    0.0000 C   0  0  0  0  0  0  0  0  0  0  0  0
    3.0791   -2.8876    0.0000 C   0  0  0  0  0  0  0  0  0  0  0  0
    1.6500   -3.7126    0.0000 C   0  0  0  0  0  0  0  0  0  0  0  0
    3.0791   -3.7126    0.0000 C   0  0  0  0  0  0  0  0  0  0  0  0
    2.3645   -1.6500    0.0000 C   0  0  0  0  0  0  0  0  0  0  0  0
    2.3645   -4.9501    0.0000 C   0  0  0  0  0  0  0  0  0  0  0  0
    3.0791   -1.2375    0.0000 C   0  0  0  0  0  0  0  0  0  0  0  0
    3.7935   -1.6500    0.0000 C   0  0  0  0  0  0  0  0  0  0  0  0
    3.0791   -0.4125    0.0000 C   0  0  0  0  0  0  0  0  0  0  0  0
    4.5080   -1.2375    0.0000 C   0  0  0  0  0  0  0  0  0  0  0  0
    3.7935    0.0000    0.0000 C   0  0  0  0  0  0  0  0  0  0  0  0
    4.5080   -0.4125    0.0000 C   0  0  0  0  0  0  0  0  0  0  0  0
    5.2224    0.0000    0.0000 C   0  0  0  0  0  0  0  0  0  0  0  0
    5.9370    1.2375    0.0000 C   0  0  0  0  0  0  0  0  0  0  0  0
    6.6515    2.4751    0.0000 C   0  0  0  0  0  0  0  0  0  0  0  0
    5.9370    2.0625    0.0000 C   0  0  0  0  0  0  0  0  0  0  0  0
    7.3659    2.0625    0.0000 C   0  0  0  0  0  0  0  0  0  0  0  0
    6.6515    0.8250    0.0000 C   0  0  0  0  0  0  0  0  0  0  0  0
    7.3659    1.2375    0.0000 C   0  0  0  0  0  0  0  0  0  0  0  0
    8.0804    2.4751    0.0000 C   0  0  0  0  0  0  0  0  0  0  0  0
    5.9370    3.7126    0.0000 C   0  0  0  0  0  0  0  0  0  0  0  0
    4.5080    3.7126    0.0000 C   0  0  0  0  0  0  0  0  0  0  0  0
    3.7935    3.3001    0.0000 C   0  0  0  0  0  0  0  0  0  0  0  0
    4.5080    4.5376    0.0000 C   0  0  0  0  0  0  0  0  0  0  0  0
    5.2224    4.9501    0.0000 C   0  0  0  0  0  0  0  0  0  0  0  0
    3.0791    3.7126    0.0000 C   0  0  0  0  0  0  0  0  0  0  0  0
    3.7935    2.4751    0.0000 C   0  0  0  0  0  0  0  0  0  0  0  0
    2.3645    3.3001    0.0000 C   0  0  0  0  0  0  0  0  0  0  0  0
    2.3645    2.4751    0.0000 C   0  0  0  0  0  0  0  0  0  0  0  0
    0.0000    0.0000    0.0000 H   0  0  0  0  0  0  0  0  0  0  0  0
    0.0000    0.0000    0.0000 H   0  0  0  0  0  0  0  0  0  0  0  0
    0.0000    0.0000    0.0000 H   0  0  0  0  0  0  0  0  0  0  0  0
    0.0000    0.0000    0.0000 H   0  0  0  0  0  0  0  0  0  0  0  0
    0.0000    0.0000    0.0000 H   0  0  0  0  0  0  0  0  0  0  0  0
    0.0000    0.0000    0.0000 H   0  0  0  0  0  0  0  0  0  0  0  0
    0.0000    0.0000    0.0000 H   0  0  0  0  0  0  0  0  0  0  0  0
    0.0000    0.0000    0.0000 H   0  0  0  0  0  0  0  0  0  0  0  0
    0.0000    0.0000    0.0000 H   0  0  0  0  0  0  0  0  0  0  0  0
    0.0000    0.0000    0.0000 H   0  0  0  0  0  0  0  0  0  0  0  0
    0.0000    0.0000    0.0000 H   0  0  0  0  0  0  0  0  0  0  0  0
    0.0000    0.0000    0.0000 H   0  0  0  0  0  0  0  0  0  0  0  0
    0.0000    0.0000    0.0000 H   0  0  0  0  0  0  0  0  0  0  0  0
    0.0000    0.0000    0.0000 H   0  0  0  0  0  0  0  0  0  0  0  0
    0.0000    0.0000    0.0000 H   0  0  0  0  0  0  0  0  0  0  0  0
    0.0000    0.0000    0.0000 H   0  0  0  0  0  0  0  0  0  0  0  0
    0.0000    0.0000    0.0000 H   0  0  0  0  0  0  0  0  0  0  0  0
    0.0000    0.0000    0.0000 H   0  0  0  0  0  0  0  0  0  0  0  0
    0.0000    0.0000    0.0000 H   0  0  0  0  0  0  0  0  0  0  0  0
    0.0000    0.0000    0.0000 H   0  0  0  0  0  0  0  0  0  0  0  0
    0.0000    0.0000    0.0000 H   0  0  0  0  0  0  0  0  0  0  0  0
    0.0000    0.0000    0.0000 H   0  0  0  0  0  0  0  0  0  0  0  0
    0.0000    0.0000    0.0000 H   0  0  0  0  0  0  0  0  0  0  0  0
    0.0000    0.0000    0.0000 H   0  0  0  0  0  0  0  0  0  0  0  0
    0.0000    0.0000    0.0000 H   0  0  0  0  0  0  0  0  0  0  0  0
    0.0000    0.0000    0.0000 H   0  0  0  0  0  0  0  0  0  0  0  0
    0.0000    0.0000    0.0000 H   0  0  0  0  0  0  0  0  0  0  0  0
    0.0000    0.0000    0.0000 H   0  0  0  0  0  0  0  0  0  0  0  0
    0.0000    0.0000    0.0000 H   0  0  0  0  0  0  0  0  0  0  0  0
    0.0000    0.0000    0.0000 H   0  0  0  0  0  0  0  0  0  0  0  0
    0.0000    0.0000    0.0000 H   0  0  0  0  0  0  0  0  0  0  0  0
  1 21  2  0
  2  9  1  0
  2 10  1  0
  2 13  1  0
  3 11  1  0
  3 12  1  0
  3 14  1  0
  4 21  1  0
  4 22  1  0
  5 23  1  0
  5 29  1  0
  6 29  2  0
  6 30  1  0
  7 29  1  0
  7 33  2  0
  8 35  2  0
  8 37  1  0
  9 11  1  0
 10 12  1  0
 13 15  1  0
 15 16  2  0
 15 17  1  0
 16 18  1  0
 17 19  2  0
 18 20  2  0
 19 20  1  0
 20 21  1  0
 22 24  2  0
 22 26  1  0
 23 24  1  0
 23 25  2  0
 25 27  1  0
 25 28  1  0
 26 27  2  0
 30 31  1  0
 30 32  2  0
 31 34  2  0
 31 35  1  0
 32 33  1  0
 34 36  1  0
 36 37  2  0
  4 38  1  0
  5 39  1  0
  9 40  1  0
  9 41  1  0
 10 42  1  0
 10 43  1  0
 11 44  1  0
 11 45  1  0
 12 46  1  0
 12 47  1  0
 13 48  1  0
 13 49  1  0
 14 50  1  0
 14 51  1  0
 14 52  1  0
 16 53  1  0
 17 54  1  0
 18 55  1  0
 19 56  1  0
 24 57  1  0
 26 58  1  0
 27 59  1  0
 28 60  1  0
 28 61  1  0
 28 62  1  0
 32 63  1  0
 33 64  1  0
 34 65  1  0
 35 66  1  0
 36 67  1  0
 37 68  1  0
M  END
>  <ALOGPS_LOGP>  (1) 
3.47

>  <ALOGPS_LOGS>  (1) 
-4.53

>  <ALOGPS_SOLUBILITY>  (1) 
1.46e-02 g/l

>  <DATABASE_ID>  (1) 
DB00619

>  <DATABASE_NAME>  (1) 
drugbank

>  <DRUGBANK_ID>  (1) 
DB00619

>  <DRUG_GROUPS>  (1) 
approved

>  <EXACT_MASS>  (1) 
493.259008649

>  <FORMULA>  (1) 
C29H31N7O

>  <GENERIC_NAME>  (1) 
Imatinib

>  <INCHI_IDENTIFIER>  (1) 
InChI=1S/C29H31N7O/c1-21-5-10-25(18-27(21)34-29-31-13-11-26(33-29)24-4-3-12-30-19-24)32-28(37)23-8-6-22(7-9-23)20-36-16-14-35(2)15-17-36/h3-13,18-19H,14-17,20H2,1-2H3,(H,32,37)(H,31,33,34)

>  <INCHI_KEY>  (1) 
KTUFNOKKBVMGRW-UHFFFAOYSA-N

>  <INTERNATIONAL_BRANDS>  (1) 
Celonib; Enliven; Glivec; Imatib; Mesylonib; Mitinab; Plivatinib; Shantinib

>  <JCHEM_ACCEPTOR_COUNT>  (1) 
7

>  <JCHEM_AVERAGE_POLARIZABILITY>  (1) 
55.53855401250665

>  <JCHEM_BIOAVAILABILITY>  (1) 
1

>  <JCHEM_DONOR_COUNT>  (1) 
2

>  <JCHEM_FORMAL_CHARGE>  (1) 
0

>  <JCHEM_GHOSE_FILTER>  (1) 
0

>  <JCHEM_IUPAC>  (1) 
N-(4-methyl-3-{[4-(pyridin-3-yl)pyrimidin-2-yl]amino}phenyl)-4-[(4-methylpiperazin-1-yl)methyl]benzamide

>  <JCHEM_LOGP>  (1) 
4.377673055

>  <JCHEM_MDDR_LIKE_RULE>  (1) 
1

>  <JCHEM_NUMBER_OF_RINGS>  (1) 
5

>  <JCHEM_PHYSIOLOGICAL_CHARGE>  (1) 
1

>  <JCHEM_PKA>  (1) 
13.451730399792329

>  <JCHEM_PKA_STRONGEST_ACIDIC>  (1) 
12.454877943435385

>  <JCHEM_PKA_STRONGEST_BASIC>  (1) 
8.272209679883193

>  <JCHEM_POLAR_SURFACE_AREA>  (1) 
86.28000000000002

>  <JCHEM_REFRACTIVITY>  (1) 
148.92929999999996

>  <JCHEM_ROTATABLE_BOND_COUNT>  (1) 
7

>  <JCHEM_RULE_OF_FIVE>  (1) 
1

>  <JCHEM_TRADITIONAL_IUPAC>  (1) 
imatinib

>  <JCHEM_VEBER_RULE>  (1) 
0

>  <MOLECULAR_WEIGHT>  (1) 
493.6027

>  <PRODUCTS>  (1) 
Apo-imatinib; Gleevec; Glivec; Imatinib Accord; Imatinib Actavis; Imatinib Medac; Imatinib Mesylate; Imatinib Teva; Mylan-imatinib; Nat-imatinib; PMS-imatinib; Ran-imatinib; Teva-imatinib

>  <SALTS>  (1) 
Imatinib Mesylate

>  <SECONDARY_ACCESSION_NUMBERS>  (1) 
APRD01028; EXPT02967; DB03261

>  <SMILES>  (1) 
CN1CCN(CC2=CC=C(C=C2)C(=O)NC2=CC(NC3=NC=CC(=N3)C3=CN=CC=C3)=C(C)C=C2)CC1

>  <SYNONYMS>  (1) 
Imatinib; Imatinibum

$$$$
