770
     RDKit          2D

 59 59  0  0  1  0  0  0  0  0999 V2000
    9.8471   -1.7365    0.0000 O   0  0  0  0  0  0  0  0  0  0  0  0
    7.4975   -3.4435    0.0000 O   0  0  0  0  0  0  0  0  0  0  0  0
    8.3950    0.9685    0.0000 O   0  0  0  0  0  0  0  0  0  0  0  0
    2.1365   -3.1799    0.0000 O   0  0  0  0  0  0  0  0  0  0  0  0
    2.5781   -1.8208    0.0000 O   0  0  0  0  0  0  0  0  0  0  0  0
    7.7275   -1.9915    0.0000 C   0  0  0  0  0  0  0  0  0  0  0  0
    8.3950   -1.5066    0.0000 C   0  0  0  0  0  0  0  0  0  0  0  0
    9.0624   -1.9915    0.0000 C   0  0  0  0  0  0  0  0  0  0  0  0
    8.8075   -2.7761    0.0000 C   0  0  0  0  0  0  0  0  0  0  0  0
    6.9429   -1.7365    0.0000 C   0  0  0  0  0  0  0  0  0  0  0  0
    7.9825   -2.7761    0.0000 C   0  0  0  0  0  0  0  0  0  0  0  0
    6.3298   -2.2886    0.0000 C   0  0  0  0  0  0  0  0  0  0  0  0
    8.3950   -0.6815    0.0000 C   0  0  0  0  0  0  0  0  0  0  0  0
    5.5451   -2.0337    0.0000 C   0  0  0  0  0  0  0  0  0  0  0  0
    9.1094   -0.2690    0.0000 C   0  0  0  0  0  0  0  0  0  0  0  0
    4.9320   -2.5857    0.0000 C   0  0  0  0  0  0  0  0  0  0  0  0
    9.1094    0.5560    0.0000 C   0  0  0  0  0  0  0  0  0  0  0  0
    9.8239    0.9685    0.0000 C   0  0  0  0  0  0  0  0  0  0  0  0
    4.1474   -2.3308    0.0000 C   0  0  0  0  0  0  0  0  0  0  0  0
    9.8239    1.7935    0.0000 C   0  0  0  0  0  0  0  0  0  0  0  0
    3.5343   -2.8828    0.0000 C   0  0  0  0  0  0  0  0  0  0  0  0
   10.5385    2.2060    0.0000 C   0  0  0  0  0  0  0  0  0  0  0  0
   10.5385    3.0310    0.0000 C   0  0  0  0  0  0  0  0  0  0  0  0
    2.7496   -2.6278    0.0000 C   0  0  0  0  0  0  0  0  0  0  0  0
   11.2529    3.4435    0.0000 C   0  0  0  0  0  0  0  0  0  0  0  0
    0.0000    0.0000    0.0000 H   0  0  0  0  0  0  0  0  0  0  0  0
    0.0000    0.0000    0.0000 H   0  0  0  0  0  0  0  0  0  0  0  0
    0.0000    0.0000    0.0000 H   0  0  0  0  0  0  0  0  0  0  0  0
    0.0000    0.0000    0.0000 H   0  0  0  0  0  0  0  0  0  0  0  0
    0.0000    0.0000    0.0000 H   0  0  0  0  0  0  0  0  0  0  0  0
    0.0000    0.0000    0.0000 H   0  0  0  0  0  0  0  0  0  0  0  0
    0.0000    0.0000    0.0000 H   0  0  0  0  0  0  0  0  0  0  0  0
    0.0000    0.0000    0.0000 H   0  0  0  0  0  0  0  0  0  0  0  0
    0.0000    0.0000    0.0000 H   0  0  0  0  0  0  0  0  0  0  0  0
    0.0000    0.0000    0.0000 H   0  0  0  0  0  0  0  0  0  0  0  0
    0.0000    0.0000    0.0000 H   0  0  0  0  0  0  0  0  0  0  0  0
    0.0000    0.0000    0.0000 H   0  0  0  0  0  0  0  0  0  0  0  0
    0.0000    0.0000    0.0000 H   0  0  0  0  0  0  0  0  0  0  0  0
    0.0000    0.0000    0.0000 H   0  0  0  0  0  0  0  0  0  0  0  0
    0.0000    0.0000    0.0000 H   0  0  0  0  0  0  0  0  0  0  0  0
    0.0000    0.0000    0.0000 H   0  0  0  0  0  0  0  0  0  0  0  0
    0.0000    0.0000    0.0000 H   0  0  0  0  0  0  0  0  0  0  0  0
    0.0000    0.0000    0.0000 H   0  0  0  0  0  0  0  0  0  0  0  0
    0.0000    0.0000    0.0000 H   0  0  0  0  0  0  0  0  0  0  0  0
    0.0000    0.0000    0.0000 H   0  0  0  0  0  0  0  0  0  0  0  0
    0.0000    0.0000    0.0000 H   0  0  0  0  0  0  0  0  0  0  0  0
    0.0000    0.0000    0.0000 H   0  0  0  0  0  0  0  0  0  0  0  0
    0.0000    0.0000    0.0000 H   0  0  0  0  0  0  0  0  0  0  0  0
    0.0000    0.0000    0.0000 H   0  0  0  0  0  0  0  0  0  0  0  0
    0.0000    0.0000    0.0000 H   0  0  0  0  0  0  0  0  0  0  0  0
    0.0000    0.0000    0.0000 H   0  0  0  0  0  0  0  0  0  0  0  0
    0.0000    0.0000    0.0000 H   0  0  0  0  0  0  0  0  0  0  0  0
    0.0000    0.0000    0.0000 H   0  0  0  0  0  0  0  0  0  0  0  0
    0.0000    0.0000    0.0000 H   0  0  0  0  0  0  0  0  0  0  0  0
    0.0000    0.0000    0.0000 H   0  0  0  0  0  0  0  0  0  0  0  0
    0.0000    0.0000    0.0000 H   0  0  0  0  0  0  0  0  0  0  0  0
    0.0000    0.0000    0.0000 H   0  0  0  0  0  0  0  0  0  0  0  0
    0.0000    0.0000    0.0000 H   0  0  0  0  0  0  0  0  0  0  0  0
    0.0000    0.0000    0.0000 H   0  0  0  0  0  0  0  0  0  0  0  0
  8  1  1  1
  2 11  2  0
 17  3  1  1
  4 24  1  0
  5 24  2  0
  6  7  1  0
  6 10  1  6
  6 11  1  0
  7  8  1  0
  7 13  1  1
  8  9  1  0
  9 11  1  0
 10 12  1  0
 12 14  1  0
 13 15  2  3
 14 16  1  0
 15 17  1  0
 16 19  1  0
 17 18  1  0
 18 20  1  0
 19 21  1  0
 20 22  1  0
 21 24  1  0
 22 23  1  0
 23 25  1  0
  1 26  1  0
  3 27  1  0
  4 28  1  0
  6 29  1  0
  7 30  1  0
  8 31  1  0
  9 32  1  0
  9 33  1  0
 10 34  1  0
 10 35  1  0
 12 36  1  0
 12 37  1  0
 13 38  1  0
 14 39  1  0
 14 40  1  0
 15 41  1  0
 16 42  1  0
 16 43  1  0
 17 44  1  0
 18 45  1  0
 18 46  1  0
 19 47  1  0
 19 48  1  0
 20 49  1  0
 20 50  1  0
 21 51  1  0
 21 52  1  0
 22 53  1  0
 22 54  1  0
 23 55  1  0
 23 56  1  0
 25 57  1  0
 25 58  1  0
 25 59  1  0
M  END
>  <ALOGPS_LOGP>  (1) 
3.04

>  <ALOGPS_LOGS>  (1) 
-3.65

>  <ALOGPS_SOLUBILITY>  (1) 
7.88e-02 g/l

>  <DATABASE_ID>  (1) 
DB00770

>  <DATABASE_NAME>  (1) 
drugbank

>  <DRUGBANK_ID>  (1) 
DB00770

>  <DRUG_GROUPS>  (1) 
approved; investigational

>  <EXACT_MASS>  (1) 
354.240624198

>  <FORMULA>  (1) 
C20H34O5

>  <GENERIC_NAME>  (1) 
Alprostadil

>  <INCHI_IDENTIFIER>  (1) 
InChI=1S/C20H34O5/c1-2-3-6-9-15(21)12-13-17-16(18(22)14-19(17)23)10-7-4-5-8-11-20(24)25/h12-13,15-17,19,21,23H,2-11,14H2,1H3,(H,24,25)/t15-,16+,17+,19+/m0/s1

>  <INCHI_KEY>  (1) 
GMVPRGQOIOIIMI-DODZYUBVSA-N

>  <INTERNATIONAL_BRANDS>  (1) 
Alista; Alprostan; Alprostapint; Alprostar; Alprostin; Alprox-TD; Altesil; Alyprost; Apistandin; Aplicav; Befar; Bolesi; Bondil; Cardiobron; Caverject DC; Caverject Dual; Eglandin; Femprox; Kai Tong; Kaishi; Karon; Liple; Minprog; Palux; Pridax; Prink; Prolisina VR; Prostandin; Prostavasin; Prostin VR; Prostivas; Sugiran; Tandetron; Topiglan; Vasaprostan; Vasoprost; Vasostenoon; Viridal

>  <JCHEM_ACCEPTOR_COUNT>  (1) 
5

>  <JCHEM_AVERAGE_POLARIZABILITY>  (1) 
41.87817356198655

>  <JCHEM_BIOAVAILABILITY>  (1) 
1

>  <JCHEM_DONOR_COUNT>  (1) 
3

>  <JCHEM_FORMAL_CHARGE>  (1) 
0

>  <JCHEM_GHOSE_FILTER>  (1) 
1

>  <JCHEM_IUPAC>  (1) 
7-[(1R,2R,3R)-3-hydroxy-2-[(3S)-3-hydroxyoct-1-en-1-yl]-5-oxocyclopentyl]heptanoic acid

>  <JCHEM_LOGP>  (1) 
3.5871917936666664

>  <JCHEM_MDDR_LIKE_RULE>  (1) 
0

>  <JCHEM_NUMBER_OF_RINGS>  (1) 
1

>  <JCHEM_PHYSIOLOGICAL_CHARGE>  (1) 
-1

>  <JCHEM_PKA>  (1) 
14.680474481265463

>  <JCHEM_PKA_STRONGEST_ACIDIC>  (1) 
4.353232088584439

>  <JCHEM_PKA_STRONGEST_BASIC>  (1) 
-1.6263175145935014

>  <JCHEM_POLAR_SURFACE_AREA>  (1) 
94.83000000000001

>  <JCHEM_REFRACTIVITY>  (1) 
98.31849999999999

>  <JCHEM_ROTATABLE_BOND_COUNT>  (1) 
13

>  <JCHEM_RULE_OF_FIVE>  (1) 
1

>  <JCHEM_TRADITIONAL_IUPAC>  (1) 
alprostadil

>  <JCHEM_VEBER_RULE>  (1) 
0

>  <MOLECULAR_WEIGHT>  (1) 
354.481

>  <PRODUCTS>  (1) 
Alprostadil; Alprostadil Injection USP; Alprostadil Injection, USP; Caverject; Caverject Impulse; Caverject Sterile Powder - Kit 11.9mcg /vial; Caverject Sterile Powder - Kit 23.2mcg/vial; Caverject Sterile Powder - Pws 11.9mcg/vial; Caverject Sterile Powder - Pws 23.2mcg/vial; Edex; Muse; Prostin Vr Pediatric; Prostin Vr Sterile Solution; Vitaros

>  <SECONDARY_ACCESSION_NUMBERS>  (1) 
APRD00785

>  <SMILES>  (1) 
CCCCC[C@H](O)C=C[C@H]1[C@H](O)CC(=O)[C@@H]1CCCCCCC(O)=O

>  <SYNONYMS>  (1) 
Alprostadil; Alprostadil Alfadex; Alprostadilum; PGE₁ ; PGE1 α-CD

$$$$
