589
     RDKit          2D

 51 54  0  0  1  0  0  0  0  0999 V2000
    4.5073    2.1324    0.0000 O   0  0  0  0  0  0  0  0  0  0  0  0
    5.9985    0.4769    0.0000 N   0  0  0  0  0  0  0  0  0  0  0  0
    3.7976    0.8924    0.0000 N   0  0  0  0  0  0  0  0  0  0  0  0
    6.9735   -2.9186    0.0000 N   0  0  0  0  0  0  0  0  0  0  0  0
    3.0785    2.1270    0.0000 N   0  0  0  0  0  0  0  0  0  0  0  0
    5.9852   -0.3821    0.0000 C   0  0  0  0  0  0  0  0  0  0  0  0
    5.2709   -0.7946    0.0000 C   0  0  0  0  0  0  0  0  0  0  0  0
    6.6997   -0.7946    0.0000 C   0  0  0  0  0  0  0  0  0  0  0  0
    4.5136    0.4826    0.0000 C   0  0  0  0  0  0  0  0  0  0  0  0
    5.2578    0.9124    0.0000 C   0  0  0  0  0  0  0  0  0  0  0  0
    6.6997   -1.6195    0.0000 C   0  0  0  0  0  0  0  0  0  0  0  0
    5.2709   -1.6195    0.0000 C   0  0  0  0  0  0  0  0  0  0  0  0
    5.9852   -2.0319    0.0000 C   0  0  0  0  0  0  0  0  0  0  0  0
    4.5202   -0.3765    0.0000 C   0  0  0  0  0  0  0  0  0  0  0  0
    5.9985   -2.8911    0.0000 C   0  0  0  0  0  0  0  0  0  0  0  0
    6.7177    0.8812    0.0000 C   0  0  0  0  0  0  0  0  0  0  0  0
    7.3076   -2.1698    0.0000 C   0  0  0  0  0  0  0  0  0  0  0  0
    4.5202   -2.0375    0.0000 C   0  0  0  0  0  0  0  0  0  0  0  0
    5.2578   -3.3264    0.0000 C   0  0  0  0  0  0  0  0  0  0  0  0
    4.5136   -2.8968    0.0000 C   0  0  0  0  0  0  0  0  0  0  0  0
    3.7945    1.7173    0.0000 C   0  0  0  0  0  0  0  0  0  0  0  0
    2.3657    1.7118    0.0000 C   0  0  0  0  0  0  0  0  0  0  0  0
    3.0754    2.9518    0.0000 C   0  0  0  0  0  0  0  0  0  0  0  0
    1.6498    2.1214    0.0000 C   0  0  0  0  0  0  0  0  0  0  0  0
    2.3594    3.3615    0.0000 C   0  0  0  0  0  0  0  0  0  0  0  0
    0.0000    0.0000    0.0000 H   0  0  0  0  0  0  0  0  0  0  0  0
    0.0000    0.0000    0.0000 H   0  0  0  0  0  0  0  0  0  0  0  0
    0.0000    0.0000    0.0000 H   0  0  0  0  0  0  0  0  0  0  0  0
    0.0000    0.0000    0.0000 H   0  0  0  0  0  0  0  0  0  0  0  0
    0.0000    0.0000    0.0000 H   0  0  0  0  0  0  0  0  0  0  0  0
    0.0000    0.0000    0.0000 H   0  0  0  0  0  0  0  0  0  0  0  0
    0.0000    0.0000    0.0000 H   0  0  0  0  0  0  0  0  0  0  0  0
    0.0000    0.0000    0.0000 H   0  0  0  0  0  0  0  0  0  0  0  0
    0.0000    0.0000    0.0000 H   0  0  0  0  0  0  0  0  0  0  0  0
    0.0000    0.0000    0.0000 H   0  0  0  0  0  0  0  0  0  0  0  0
    0.0000    0.0000    0.0000 H   0  0  0  0  0  0  0  0  0  0  0  0
    0.0000    0.0000    0.0000 H   0  0  0  0  0  0  0  0  0  0  0  0
    0.0000    0.0000    0.0000 H   0  0  0  0  0  0  0  0  0  0  0  0
    0.0000    0.0000    0.0000 H   0  0  0  0  0  0  0  0  0  0  0  0
    0.0000    0.0000    0.0000 H   0  0  0  0  0  0  0  0  0  0  0  0
    0.0000    0.0000    0.0000 H   0  0  0  0  0  0  0  0  0  0  0  0
    0.0000    0.0000    0.0000 H   0  0  0  0  0  0  0  0  0  0  0  0
    0.0000    0.0000    0.0000 H   0  0  0  0  0  0  0  0  0  0  0  0
    0.0000    0.0000    0.0000 H   0  0  0  0  0  0  0  0  0  0  0  0
    0.0000    0.0000    0.0000 H   0  0  0  0  0  0  0  0  0  0  0  0
    0.0000    0.0000    0.0000 H   0  0  0  0  0  0  0  0  0  0  0  0
    0.0000    0.0000    0.0000 H   0  0  0  0  0  0  0  0  0  0  0  0
    0.0000    0.0000    0.0000 H   0  0  0  0  0  0  0  0  0  0  0  0
    0.0000    0.0000    0.0000 H   0  0  0  0  0  0  0  0  0  0  0  0
    0.0000    0.0000    0.0000 H   0  0  0  0  0  0  0  0  0  0  0  0
    0.0000    0.0000    0.0000 H   0  0  0  0  0  0  0  0  0  0  0  0
  1 21  2  0
  2  6  1  0
  2 10  1  0
  2 16  1  0
  9  3  1  6
  3 21  1  0
  4 15  1  0
  4 17  1  0
  5 21  1  0
  5 22  1  0
  5 23  1  0
  6  7  1  0
  6  8  1  0
  7 12  1  0
  7 14  2  0
  8 11  1  0
  9 10  1  0
  9 14  1  0
 11 13  1  0
 11 17  2  0
 12 13  2  0
 12 18  1  0
 13 15  1  0
 15 19  2  0
 18 20  2  0
 19 20  1  0
 22 24  1  0
 23 25  1  0
  3 26  1  0
  4 27  1  0
  6 28  1  1
  8 29  1  0
  8 30  1  0
  9 31  1  0
 10 32  1  0
 10 33  1  0
 14 34  1  0
 16 35  1  0
 16 36  1  0
 16 37  1  0
 17 38  1  0
 18 39  1  0
 19 40  1  0
 20 41  1  0
 22 42  1  0
 22 43  1  0
 23 44  1  0
 23 45  1  0
 24 46  1  0
 24 47  1  0
 24 48  1  0
 25 49  1  0
 25 50  1  0
 25 51  1  0
M  END
>  <ALOGPS_LOGP>  (1) 
2.37

>  <ALOGPS_LOGS>  (1) 
-3.38

>  <ALOGPS_SOLUBILITY>  (1) 
1.40e-01 g/l

>  <DATABASE_ID>  (1) 
DB00589

>  <DATABASE_NAME>  (1) 
drugbank

>  <DRUGBANK_ID>  (1) 
DB00589

>  <DRUG_GROUPS>  (1) 
approved; investigational

>  <EXACT_MASS>  (1) 
338.210661474

>  <FORMULA>  (1) 
C20H26N4O

>  <GENERIC_NAME>  (1) 
Lisuride

>  <INCHI_IDENTIFIER>  (1) 
InChI=1S/C20H26N4O/c1-4-24(5-2)20(25)22-14-10-16-15-7-6-8-17-19(15)13(11-21-17)9-18(16)23(3)12-14/h6-8,10-11,14,18,21H,4-5,9,12H2,1-3H3,(H,22,25)/t14-,18+/m0/s1

>  <INCHI_KEY>  (1) 
BKRGVLQUQGGVSM-KBXCAEBGSA-N

>  <INTERNATIONAL_BRANDS>  (1) 
Arolac; Dipergon; Dopergin; Dopergine; Proclacam; Revanil

>  <JCHEM_ACCEPTOR_COUNT>  (1) 
2

>  <JCHEM_AVERAGE_POLARIZABILITY>  (1) 
38.80745333546789

>  <JCHEM_BIOAVAILABILITY>  (1) 
1

>  <JCHEM_DONOR_COUNT>  (1) 
2

>  <JCHEM_FORMAL_CHARGE>  (1) 
0

>  <JCHEM_GHOSE_FILTER>  (1) 
1

>  <JCHEM_IUPAC>  (1) 
3,3-diethyl-1-[(4S,7R)-6-methyl-6,11-diazatetracyclo[7.6.1.0²,⁷.0¹²,¹⁶]hexadeca-1(16),2,9,12,14-pentaen-4-yl]urea

>  <JCHEM_LOGP>  (1) 
2.1692287139999995

>  <JCHEM_MDDR_LIKE_RULE>  (1) 
0

>  <JCHEM_NUMBER_OF_RINGS>  (1) 
4

>  <JCHEM_PHYSIOLOGICAL_CHARGE>  (1) 
0

>  <JCHEM_PKA>  (1) 
17.023161278725247

>  <JCHEM_PKA_STRONGEST_ACIDIC>  (1) 
15.356023075539433

>  <JCHEM_PKA_STRONGEST_BASIC>  (1) 
6.875951361180381

>  <JCHEM_POLAR_SURFACE_AREA>  (1) 
51.370000000000005

>  <JCHEM_REFRACTIVITY>  (1) 
101.81210000000002

>  <JCHEM_ROTATABLE_BOND_COUNT>  (1) 
3

>  <JCHEM_RULE_OF_FIVE>  (1) 
1

>  <JCHEM_TRADITIONAL_IUPAC>  (1) 
lisuride

>  <JCHEM_VEBER_RULE>  (1) 
0

>  <MOLECULAR_WEIGHT>  (1) 
338.4466

>  <SALTS>  (1) 
Lysuride Maleate

>  <SECONDARY_ACCESSION_NUMBERS>  (1) 
APRD00636

>  <SMILES>  (1) 
[H][C@@]12CC3=CNC4=CC=CC(=C34)C1=C[C@@H](CN2C)NC(=O)N(CC)CC

>  <SYNONYMS>  (1) 
Lisurid; Lisurida; Lisuride; Lisuridum

$$$$
