
     RDKit          2D

176182  0  0  0  0  0  0  0  0999 V2000
    0.7145    0.4125    0.0000 C   0  0  0  0  0  0  0  0  0  0  0  0
    0.7145   -0.4125    0.0000 C   0  0  0  0  0  0  0  0  0  0  0  0
    0.0000   -0.8250    0.0000 O   0  0  0  0  0  0  0  0  0  0  0  0
   -0.7145    0.4125    0.0000 C   0  0  0  0  0  0  0  0  0  0  0  0
   -0.7145   -0.4125    0.0000 C   0  0  0  0  0  0  0  0  0  0  0  0
    0.0000    0.8250    0.0000 N   0  0  0  0  0  0  0  0  0  0  0  0
    1.4289    0.8250    0.0000 C   0  0  0  0  0  0  0  0  0  0  0  0
    1.4289   -0.8250    0.0000 C   0  0  0  0  0  0  0  0  0  0  0  0
    1.4289    1.6500    0.0000 C   0  0  0  0  0  0  0  0  0  0  0  0
    2.1434    0.4125    0.0000 C   0  0  0  0  0  0  0  0  0  0  0  0
    2.1434   -0.4125    0.0000 C   0  0  0  0  0  0  0  0  0  0  0  0
    1.4289   -1.6500    0.0000 C   0  0  0  0  0  0  0  0  0  0  0  0
    0.7145    2.0625    0.0000 O   0  0  0  0  0  0  0  0  0  0  0  0
    2.8579    0.8250    0.0000 N   0  0  0  0  0  0  0  0  0  0  0  0
   -1.4289    0.8250    0.0000 C   0  0  0  0  0  0  0  0  0  0  0  0
   -1.4289   -0.8250    0.0000 C   0  0  0  0  0  0  0  0  0  0  0  0
    2.8579   -0.8250    0.0000 O   0  0  0  0  0  0  0  0  0  0  0  0
   -1.4289    1.6500    0.0000 C   0  0  0  0  0  0  0  0  0  0  0  0
   -2.1434    0.4125    0.0000 C   0  0  0  0  0  0  0  0  0  0  0  0
   -2.1434   -0.4125    0.0000 C   0  0  0  0  0  0  0  0  0  0  0  0
   -1.4289   -1.6500    0.0000 C   0  0  0  0  0  0  0  0  0  0  0  0
   -0.7145    2.0625    0.0000 O   0  0  0  0  0  0  0  0  0  0  0  0
   -2.1434    2.0625    0.0000 N   0  0  0  0  0  0  0  0  0  0  0  0
   -2.1434    2.8875    0.0000 C   0  0  0  0  0  0  0  0  0  0  0  0
   -1.4289    3.3000    0.0000 C   0  0  0  0  0  0  0  0  0  0  0  0
   -2.8579    3.3000    0.0000 C   0  0  0  0  0  0  0  0  0  0  0  0
   -3.5724    2.8875    0.0000 O   0  0  0  0  0  0  0  0  0  0  0  0
   -4.2868    3.3000    0.0000 C   0  0  0  0  0  0  0  0  0  0  0  0
   -5.0013    7.0125    0.0000 N   0  0  0  0  0  0  0  0  0  0  0  0
   -5.1728    7.8195    0.0000 C   0  0  0  0  0  0  0  0  0  0  0  0
   -5.7158    6.6000    0.0000 C   0  0  0  0  0  0  0  0  0  0  0  0
   -5.9933    7.9057    0.0000 C   0  0  0  0  0  0  0  0  0  0  0  0
   -6.3289    7.1520    0.0000 C   0  0  0  0  0  0  0  0  0  0  0  0
   -5.7158    5.7750    0.0000 C   0  0  0  0  0  0  0  0  0  0  0  0
   -6.4302    5.3625    0.0000 N   0  0  0  0  0  0  0  0  0  0  0  0
   -6.4302    4.5375    0.0000 C   0  0  0  0  0  0  0  0  0  0  0  0
   -7.1447    5.7750    0.0000 C   0  0  0  0  0  0  0  0  0  0  0  0
   -5.7158    4.1250    0.0000 C   0  0  0  0  0  0  0  0  0  0  0  0
   -5.0013    4.5375    0.0000 O   0  0  0  0  0  0  0  0  0  0  0  0
   -5.7158    3.3000    0.0000 N   0  0  0  0  0  0  0  0  0  0  0  0
   -6.4302    2.8875    0.0000 C   0  0  0  0  0  0  0  0  0  0  0  0
   -5.0013    2.8875    0.0000 C   0  0  0  0  0  0  0  0  0  0  0  0
   -5.0013    2.0625    0.0000 C   0  0  0  0  0  0  0  0  0  0  0  0
   -5.7158    1.6500    0.0000 C   0  0  0  0  0  0  0  0  0  0  0  0
   -4.2868    1.6500    0.0000 C   0  0  0  0  0  0  0  0  0  0  0  0
   -5.0013    5.3625    0.0000 O   0  0  0  0  0  0  0  0  0  0  0  0
   -4.2868    4.1250    0.0000 O   0  0  0  0  0  0  0  0  0  0  0  0
   -2.8579    4.1250    0.0000 C   0  0  0  0  0  0  0  0  0  0  0  0
   -4.2868    5.7750    0.0000 O   0  0  0  0  0  0  0  0  0  0  0  0
   -0.7145    2.8875    0.0000 O   0  0  0  0  0  0  0  0  0  0  0  0
   -1.4289    6.6000    0.0000 N   0  0  0  0  0  0  0  0  0  0  0  0
   -4.2868    6.6000    0.0000 C   0  0  0  0  0  0  0  0  0  0  0  0
   -2.8579    7.4250    0.0000 C   0  0  0  0  0  0  0  0  0  0  0  0
   -3.5724    8.6625    0.0000 C   0  0  0  0  0  0  0  0  0  0  0  0
   -2.8579    8.2500    0.0000 C   0  0  0  0  0  0  0  0  0  0  0  0
   -2.1434    8.6625    0.0000 C   0  0  0  0  0  0  0  0  0  0  0  0
    2.1434    2.0625    0.0000 N   0  0  0  0  0  0  0  0  0  0  0  0
    2.1434    2.8875    0.0000 C   0  0  0  0  0  0  0  0  0  0  0  0
    1.4289    3.3000    0.0000 C   0  0  0  0  0  0  0  0  0  0  0  0
    2.8579    3.3000    0.0000 C   0  0  0  0  0  0  0  0  0  0  0  0
    3.5724    2.8875    0.0000 O   0  0  0  0  0  0  0  0  0  0  0  0
    4.2868    3.3000    0.0000 C   0  0  0  0  0  0  0  0  0  0  0  0
    5.0013    7.0125    0.0000 N   0  0  0  0  0  0  0  0  0  0  0  0
    5.1728    7.8195    0.0000 C   0  0  0  0  0  0  0  0  0  0  0  0
    5.7158    6.6000    0.0000 C   0  0  0  0  0  0  0  0  0  0  0  0
    5.9933    7.9057    0.0000 C   0  0  0  0  0  0  0  0  0  0  0  0
    6.3289    7.1520    0.0000 C   0  0  0  0  0  0  0  0  0  0  0  0
    5.7158    5.7750    0.0000 C   0  0  0  0  0  0  0  0  0  0  0  0
    6.4302    5.3625    0.0000 N   0  0  0  0  0  0  0  0  0  0  0  0
    6.4302    4.5375    0.0000 C   0  0  0  0  0  0  0  0  0  0  0  0
    7.1447    5.7750    0.0000 C   0  0  0  0  0  0  0  0  0  0  0  0
    5.7158    4.1250    0.0000 C   0  0  0  0  0  0  0  0  0  0  0  0
    5.0013    4.5375    0.0000 O   0  0  0  0  0  0  0  0  0  0  0  0
    5.7158    3.3000    0.0000 N   0  0  0  0  0  0  0  0  0  0  0  0
    6.4302    2.8875    0.0000 C   0  0  0  0  0  0  0  0  0  0  0  0
    5.0013    2.8875    0.0000 C   0  0  0  0  0  0  0  0  0  0  0  0
    5.0013    2.0625    0.0000 C   0  0  0  0  0  0  0  0  0  0  0  0
    5.7158    1.6500    0.0000 C   0  0  0  0  0  0  0  0  0  0  0  0
    4.2868    1.6500    0.0000 C   0  0  0  0  0  0  0  0  0  0  0  0
    5.0013    5.3625    0.0000 O   0  0  0  0  0  0  0  0  0  0  0  0
    4.2868    4.1250    0.0000 O   0  0  0  0  0  0  0  0  0  0  0  0
    2.8579    4.1250    0.0000 C   0  0  0  0  0  0  0  0  0  0  0  0
    4.2868    5.7750    0.0000 O   0  0  0  0  0  0  0  0  0  0  0  0
    0.7145    2.8875    0.0000 O   0  0  0  0  0  0  0  0  0  0  0  0
    1.4289    6.6000    0.0000 N   0  0  0  0  0  0  0  0  0  0  0  0
    4.2868    6.6000    0.0000 C   0  0  0  0  0  0  0  0  0  0  0  0
    2.8579    7.4250    0.0000 C   0  0  0  0  0  0  0  0  0  0  0  0
    3.5724    8.6625    0.0000 C   0  0  0  0  0  0  0  0  0  0  0  0
    2.8579    8.2500    0.0000 C   0  0  0  0  0  0  0  0  0  0  0  0
    2.1434    8.6625    0.0000 C   0  0  0  0  0  0  0  0  0  0  0  0
    0.0000    0.0000    0.0000 H   0  0  0  0  0  0  0  0  0  0  0  0
    0.0000    0.0000    0.0000 H   0  0  0  0  0  0  0  0  0  0  0  0
    0.0000    0.0000    0.0000 H   0  0  0  0  0  0  0  0  0  0  0  0
    0.0000    0.0000    0.0000 H   0  0  0  0  0  0  0  0  0  0  0  0
    0.0000    0.0000    0.0000 H   0  0  0  0  0  0  0  0  0  0  0  0
    0.0000    0.0000    0.0000 H   0  0  0  0  0  0  0  0  0  0  0  0
    0.0000    0.0000    0.0000 H   0  0  0  0  0  0  0  0  0  0  0  0
    0.0000    0.0000    0.0000 H   0  0  0  0  0  0  0  0  0  0  0  0
    0.0000    0.0000    0.0000 H   0  0  0  0  0  0  0  0  0  0  0  0
    0.0000    0.0000    0.0000 H   0  0  0  0  0  0  0  0  0  0  0  0
    0.0000    0.0000    0.0000 H   0  0  0  0  0  0  0  0  0  0  0  0
    0.0000    0.0000    0.0000 H   0  0  0  0  0  0  0  0  0  0  0  0
    0.0000    0.0000    0.0000 H   0  0  0  0  0  0  0  0  0  0  0  0
    0.0000    0.0000    0.0000 H   0  0  0  0  0  0  0  0  0  0  0  0
    0.0000    0.0000    0.0000 H   0  0  0  0  0  0  0  0  0  0  0  0
    0.0000    0.0000    0.0000 H   0  0  0  0  0  0  0  0  0  0  0  0
    0.0000    0.0000    0.0000 H   0  0  0  0  0  0  0  0  0  0  0  0
    0.0000    0.0000    0.0000 H   0  0  0  0  0  0  0  0  0  0  0  0
    0.0000    0.0000    0.0000 H   0  0  0  0  0  0  0  0  0  0  0  0
    0.0000    0.0000    0.0000 H   0  0  0  0  0  0  0  0  0  0  0  0
    0.0000    0.0000    0.0000 H   0  0  0  0  0  0  0  0  0  0  0  0
    0.0000    0.0000    0.0000 H   0  0  0  0  0  0  0  0  0  0  0  0
    0.0000    0.0000    0.0000 H   0  0  0  0  0  0  0  0  0  0  0  0
    0.0000    0.0000    0.0000 H   0  0  0  0  0  0  0  0  0  0  0  0
    0.0000    0.0000    0.0000 H   0  0  0  0  0  0  0  0  0  0  0  0
    0.0000    0.0000    0.0000 H   0  0  0  0  0  0  0  0  0  0  0  0
    0.0000    0.0000    0.0000 H   0  0  0  0  0  0  0  0  0  0  0  0
    0.0000    0.0000    0.0000 H   0  0  0  0  0  0  0  0  0  0  0  0
    0.0000    0.0000    0.0000 H   0  0  0  0  0  0  0  0  0  0  0  0
    0.0000    0.0000    0.0000 H   0  0  0  0  0  0  0  0  0  0  0  0
    0.0000    0.0000    0.0000 H   0  0  0  0  0  0  0  0  0  0  0  0
    0.0000    0.0000    0.0000 H   0  0  0  0  0  0  0  0  0  0  0  0
    0.0000    0.0000    0.0000 H   0  0  0  0  0  0  0  0  0  0  0  0
    0.0000    0.0000    0.0000 H   0  0  0  0  0  0  0  0  0  0  0  0
    0.0000    0.0000    0.0000 H   0  0  0  0  0  0  0  0  0  0  0  0
    0.0000    0.0000    0.0000 H   0  0  0  0  0  0  0  0  0  0  0  0
    0.0000    0.0000    0.0000 H   0  0  0  0  0  0  0  0  0  0  0  0
    0.0000    0.0000    0.0000 H   0  0  0  0  0  0  0  0  0  0  0  0
    0.0000    0.0000    0.0000 H   0  0  0  0  0  0  0  0  0  0  0  0
    0.0000    0.0000    0.0000 H   0  0  0  0  0  0  0  0  0  0  0  0
    0.0000    0.0000    0.0000 H   0  0  0  0  0  0  0  0  0  0  0  0
    0.0000    0.0000    0.0000 H   0  0  0  0  0  0  0  0  0  0  0  0
    0.0000    0.0000    0.0000 H   0  0  0  0  0  0  0  0  0  0  0  0
    0.0000    0.0000    0.0000 H   0  0  0  0  0  0  0  0  0  0  0  0
    0.0000    0.0000    0.0000 H   0  0  0  0  0  0  0  0  0  0  0  0
    0.0000    0.0000    0.0000 H   0  0  0  0  0  0  0  0  0  0  0  0
    0.0000    0.0000    0.0000 H   0  0  0  0  0  0  0  0  0  0  0  0
    0.0000    0.0000    0.0000 H   0  0  0  0  0  0  0  0  0  0  0  0
    0.0000    0.0000    0.0000 H   0  0  0  0  0  0  0  0  0  0  0  0
    0.0000    0.0000    0.0000 H   0  0  0  0  0  0  0  0  0  0  0  0
    0.0000    0.0000    0.0000 H   0  0  0  0  0  0  0  0  0  0  0  0
    0.0000    0.0000    0.0000 H   0  0  0  0  0  0  0  0  0  0  0  0
    0.0000    0.0000    0.0000 H   0  0  0  0  0  0  0  0  0  0  0  0
    0.0000    0.0000    0.0000 H   0  0  0  0  0  0  0  0  0  0  0  0
    0.0000    0.0000    0.0000 H   0  0  0  0  0  0  0  0  0  0  0  0
    0.0000    0.0000    0.0000 H   0  0  0  0  0  0  0  0  0  0  0  0
    0.0000    0.0000    0.0000 H   0  0  0  0  0  0  0  0  0  0  0  0
    0.0000    0.0000    0.0000 H   0  0  0  0  0  0  0  0  0  0  0  0
    0.0000    0.0000    0.0000 H   0  0  0  0  0  0  0  0  0  0  0  0
    0.0000    0.0000    0.0000 H   0  0  0  0  0  0  0  0  0  0  0  0
    0.0000    0.0000    0.0000 H   0  0  0  0  0  0  0  0  0  0  0  0
    0.0000    0.0000    0.0000 H   0  0  0  0  0  0  0  0  0  0  0  0
    0.0000    0.0000    0.0000 H   0  0  0  0  0  0  0  0  0  0  0  0
    0.0000    0.0000    0.0000 H   0  0  0  0  0  0  0  0  0  0  0  0
    0.0000    0.0000    0.0000 H   0  0  0  0  0  0  0  0  0  0  0  0
    0.0000    0.0000    0.0000 H   0  0  0  0  0  0  0  0  0  0  0  0
    0.0000    0.0000    0.0000 H   0  0  0  0  0  0  0  0  0  0  0  0
    0.0000    0.0000    0.0000 H   0  0  0  0  0  0  0  0  0  0  0  0
    0.0000    0.0000    0.0000 H   0  0  0  0  0  0  0  0  0  0  0  0
    0.0000    0.0000    0.0000 H   0  0  0  0  0  0  0  0  0  0  0  0
    0.0000    0.0000    0.0000 H   0  0  0  0  0  0  0  0  0  0  0  0
    0.0000    0.0000    0.0000 H   0  0  0  0  0  0  0  0  0  0  0  0
    0.0000    0.0000    0.0000 H   0  0  0  0  0  0  0  0  0  0  0  0
    0.0000    0.0000    0.0000 H   0  0  0  0  0  0  0  0  0  0  0  0
    0.0000    0.0000    0.0000 H   0  0  0  0  0  0  0  0  0  0  0  0
    0.0000    0.0000    0.0000 H   0  0  0  0  0  0  0  0  0  0  0  0
    0.0000    0.0000    0.0000 H   0  0  0  0  0  0  0  0  0  0  0  0
    0.0000    0.0000    0.0000 H   0  0  0  0  0  0  0  0  0  0  0  0
    0.0000    0.0000    0.0000 H   0  0  0  0  0  0  0  0  0  0  0  0
    0.0000    0.0000    0.0000 H   0  0  0  0  0  0  0  0  0  0  0  0
    0.0000    0.0000    0.0000 H   0  0  0  0  0  0  0  0  0  0  0  0
    0.0000    0.0000    0.0000 H   0  0  0  0  0  0  0  0  0  0  0  0
    0.0000    0.0000    0.0000 H   0  0  0  0  0  0  0  0  0  0  0  0
    0.0000    0.0000    0.0000 H   0  0  0  0  0  0  0  0  0  0  0  0
    0.0000    0.0000    0.0000 H   0  0  0  0  0  0  0  0  0  0  0  0
    0.0000    0.0000    0.0000 H   0  0  0  0  0  0  0  0  0  0  0  0
  7  1  1  0
  2  1  1  0
  8  2  2  0
  3  2  1  0
 15  4  1  0
  5  3  1  0
  5  4  2  0
 16  5  1  0
  4  6  1  0
  6  1  2  0
  9  7  1  0
 10  7  2  0
 11  8  1  0
 12  8  1  0
 57  9  1  0
 13  9  2  0
 14 10  1  0
 11 10  1  0
 17 11  2  0
 18 15  1  0
 19 15  2  0
 20 16  2  0
 21 16  1  0
 23 18  1  0
 22 18  2  0
 20 19  1  0
 24 23  1  1
 25 24  1  0
 26 24  1  0
 50 25  2  0
 25 51  1  0
 26 48  1  1
 27 26  1  0
 28 27  1  0
 47 28  2  0
 42 28  1  0
 29 52  1  0
 30 29  1  0
 31 29  1  0
 32 30  1  0
 33 31  1  0
 34 31  1  0
 33 32  1  0
 46 34  2  0
 35 34  1  0
 36 35  1  0
 37 35  1  0
 38 36  1  0
 39 38  2  0
 40 38  1  0
 41 40  1  0
 42 40  1  0
 42 43  1  6
 44 43  1  0
 45 43  1  0
 49 52  2  0
 53 51  1  0
 52 53  1  0
 53 55  1  6
 55 54  1  0
 55 56  1  0
 58 57  1  6
 59 58  1  0
 60 58  1  0
 84 59  2  0
 59 85  1  0
 60 82  1  6
 61 60  1  0
 62 61  1  0
 81 62  2  0
 76 62  1  0
 63 86  1  0
 64 63  1  0
 65 63  1  0
 66 64  1  0
 67 65  1  0
 68 65  1  0
 67 66  1  0
 80 68  2  0
 69 68  1  0
 70 69  1  0
 71 69  1  0
 72 70  1  0
 73 72  2  0
 74 72  1  0
 75 74  1  0
 76 74  1  0
 76 77  1  1
 78 77  1  0
 79 77  1  0
 83 86  2  0
 87 85  1  0
 86 87  1  0
 87 89  1  1
 89 88  1  0
 89 90  1  0
 12 91  1  0
 12 92  1  0
 12 93  1  0
 14 94  1  0
 14 95  1  0
 19 96  1  0
 20 97  1  0
 21 98  1  0
 21 99  1  0
 21100  1  0
 23101  1  0
 24102  1  0
 26103  1  0
 30104  1  0
 30105  1  0
 31106  1  1
 32107  1  0
 32108  1  0
 33109  1  0
 33110  1  0
 36111  1  0
 36112  1  0
 37113  1  0
 37114  1  0
 37115  1  0
 41116  1  0
 41117  1  0
 41118  1  0
 42119  1  0
 43120  1  0
 44121  1  0
 44122  1  0
 44123  1  0
 45124  1  0
 45125  1  0
 45126  1  0
 48127  1  0
 48128  1  0
 48129  1  0
 51130  1  0
 53131  1  0
 54132  1  0
 54133  1  0
 54134  1  0
 55135  1  0
 56136  1  0
 56137  1  0
 56138  1  0
 57139  1  0
 58140  1  0
 60141  1  0
 64142  1  0
 64143  1  0
 65144  1  6
 66145  1  0
 66146  1  0
 67147  1  0
 67148  1  0
 70149  1  0
 70150  1  0
 71151  1  0
 71152  1  0
 71153  1  0
 75154  1  0
 75155  1  0
 75156  1  0
 76157  1  0
 77158  1  0
 78159  1  0
 78160  1  0
 78161  1  0
 79162  1  0
 79163  1  0
 79164  1  0
 82165  1  0
 82166  1  0
 82167  1  0
 85168  1  0
 87169  1  0
 88170  1  0
 88171  1  0
 88172  1  0
 89173  1  0
 90174  1  0
 90175  1  0
 90176  1  0
M  END
>  <ALOGPS_LOGP>  (1) 
2.76

>  <ALOGPS_LOGS>  (1) 
-4.80

>  <ALOGPS_SOLUBILITY>  (1) 
2.00e-02 g/l

>  <DATABASE_ID>  (1) 
DB00970

>  <DATABASE_NAME>  (1) 
drugbank

>  <DRUGBANK_ID>  (1) 
DB00970

>  <DRUG_GROUPS>  (1) 
approved

>  <EXACT_MASS>  (1) 
1254.628474764

>  <FORMULA>  (1) 
C62H86N12O16

>  <GENERIC_NAME>  (1) 
Dactinomycin

>  <INCHI_IDENTIFIER>  (1) 
InChI=1S/C62H86N12O16/c1-27(2)42-59(84)73-23-17-19-36(73)57(82)69(13)25-38(75)71(15)48(29(5)6)61(86)88-33(11)44(55(80)65-42)67-53(78)35-22-21-31(9)51-46(35)64-47-40(41(63)50(77)32(10)52(47)90-51)54(79)68-45-34(12)89-62(87)49(30(7)8)72(16)39(76)26-70(14)58(83)37-20-18-24-74(37)60(85)43(28(3)4)66-56(45)81/h21-22,27-30,33-34,36-37,42-45,48-49H,17-20,23-26,63H2,1-16H3,(H,65,80)(H,66,81)(H,67,78)(H,68,79)/t33-,34-,36+,37+,42-,43-,44+,45+,48+,49+/m1/s1

>  <INCHI_KEY>  (1) 
RJURFGZVJUQBHK-IIXSONLDSA-N

>  <INTERNATIONAL_BRANDS>  (1) 
Lyovac Cosmegen

>  <JCHEM_ACCEPTOR_COUNT>  (1) 
16

>  <JCHEM_AVERAGE_POLARIZABILITY>  (1) 
129.20305434085913

>  <JCHEM_BIOAVAILABILITY>  (1) 
0

>  <JCHEM_DONOR_COUNT>  (1) 
5

>  <JCHEM_FORMAL_CHARGE>  (1) 
0

>  <JCHEM_GHOSE_FILTER>  (1) 
0

>  <JCHEM_IUPAC>  (1) 
N1,N9-bis[(6S,9R,10S,13R,18aS)-2,5,9-trimethyl-1,4,7,11,14-pentaoxo-6,13-bis(propan-2-yl)-hexadecahydro-1H-pyrrolo[2,1-i]1-oxa-4,7,10,13-tetraazacyclohexadecan-10-yl]-2-amino-4,6-dimethyl-3-oxo-3H-phenoxazine-1,9-dicarboxamide

>  <JCHEM_LOGP>  (1) 
-0.09688245333333306

>  <JCHEM_MDDR_LIKE_RULE>  (1) 
1

>  <JCHEM_NUMBER_OF_RINGS>  (1) 
7

>  <JCHEM_PHYSIOLOGICAL_CHARGE>  (1) 
0

>  <JCHEM_PKA>  (1) 
11.098483446604181

>  <JCHEM_PKA_STRONGEST_ACIDIC>  (1) 
10.516916377159324

>  <JCHEM_PKA_STRONGEST_BASIC>  (1) 
-0.12943168000481753

>  <JCHEM_POLAR_SURFACE_AREA>  (1) 
355.53999999999996

>  <JCHEM_REFRACTIVITY>  (1) 
326.17160000000007

>  <JCHEM_ROTATABLE_BOND_COUNT>  (1) 
8

>  <JCHEM_RULE_OF_FIVE>  (1) 
0

>  <JCHEM_TRADITIONAL_IUPAC>  (1) 
actinomycin D

>  <JCHEM_VEBER_RULE>  (1) 
0

>  <MOLECULAR_WEIGHT>  (1) 
1255.417

>  <PRODUCTS>  (1) 
Cosmegen; Dactinomycin

>  <SECONDARY_ACCESSION_NUMBERS>  (1) 
APRD00124

>  <SMILES>  (1) 
[H][C@@]12CCCN1C(=O)[C@H](NC(=O)[C@@H](NC(=O)C1=C3N=C4C(OC3=C(C)C=C1)=C(C)C(=O)C(N)=C4C(=O)N[C@H]1[C@@H](C)OC(=O)[C@H](C(C)C)N(C)C(=O)CN(C)C(=O)[C@]3([H])CCCN3C(=O)[C@H](NC1=O)C(C)C)[C@@H](C)OC(=O)[C@H](C(C)C)N(C)C(=O)CN(C)C2=O)C(C)C

>  <SYNONYMS>  (1) 
Dactinomicina; Dactinomycine; Dactinomycinum; Meractinomycin

$$$$
