874
     RDKit          2D

 28 28  0  0  1  0  0  0  0  0999 V2000
    3.7935   -0.1279    0.0000 O   0  0  0  0  0  0  0  0  0  0  0  0
    3.7935    1.5222    0.0000 O   0  0  0  0  0  0  0  0  0  0  0  0
    5.2224    2.3472    0.0000 O   0  0  0  0  0  0  0  0  0  0  0  0
    2.3645   -0.9529    0.0000 O   0  0  0  0  0  0  0  0  0  0  0  0
    4.5080    1.1096    0.0000 C   0  0  0  0  0  0  0  0  0  0  0  0
    4.5080    0.2846    0.0000 C   0  0  0  0  0  0  0  0  0  0  0  0
    5.2224    1.5222    0.0000 C   0  0  0  0  0  0  0  0  0  0  0  0
    3.7935   -0.9529    0.0000 C   0  0  0  0  0  0  0  0  0  0  0  0
    3.0791   -1.3654    0.0000 C   0  0  0  0  0  0  0  0  0  0  0  0
    4.5080   -1.3654    0.0000 C   0  0  0  0  0  0  0  0  0  0  0  0
    3.0791   -2.1904    0.0000 C   0  0  0  0  0  0  0  0  0  0  0  0
    4.5080   -2.1904    0.0000 C   0  0  0  0  0  0  0  0  0  0  0  0
    3.7935   -2.6029    0.0000 C   0  0  0  0  0  0  0  0  0  0  0  0
    1.6500   -1.3654    0.0000 C   0  0  0  0  0  0  0  0  0  0  0  0
    0.0000    0.0000    0.0000 H   0  0  0  0  0  0  0  0  0  0  0  0
    0.0000    0.0000    0.0000 H   0  0  0  0  0  0  0  0  0  0  0  0
    0.0000    0.0000    0.0000 H   0  0  0  0  0  0  0  0  0  0  0  0
    0.0000    0.0000    0.0000 H   0  0  0  0  0  0  0  0  0  0  0  0
    0.0000    0.0000    0.0000 H   0  0  0  0  0  0  0  0  0  0  0  0
    0.0000    0.0000    0.0000 H   0  0  0  0  0  0  0  0  0  0  0  0
    0.0000    0.0000    0.0000 H   0  0  0  0  0  0  0  0  0  0  0  0
    0.0000    0.0000    0.0000 H   0  0  0  0  0  0  0  0  0  0  0  0
    0.0000    0.0000    0.0000 H   0  0  0  0  0  0  0  0  0  0  0  0
    0.0000    0.0000    0.0000 H   0  0  0  0  0  0  0  0  0  0  0  0
    0.0000    0.0000    0.0000 H   0  0  0  0  0  0  0  0  0  0  0  0
    0.0000    0.0000    0.0000 H   0  0  0  0  0  0  0  0  0  0  0  0
    0.0000    0.0000    0.0000 H   0  0  0  0  0  0  0  0  0  0  0  0
    0.0000    0.0000    0.0000 H   0  0  0  0  0  0  0  0  0  0  0  0
  1  6  1  0
  1  8  1  0
  2  5  1  0
  3  7  1  0
  4  9  1  0
  4 14  1  0
  5  6  1  0
  5  7  1  0
  8  9  2  0
  8 10  1  0
  9 11  1  0
 10 12  2  0
 11 13  2  0
 12 13  1  0
  2 15  1  0
  3 16  1  0
  5 17  1  0
  6 18  1  0
  6 19  1  0
  7 20  1  0
  7 21  1  0
 10 22  1  0
 11 23  1  0
 12 24  1  0
 13 25  1  0
 14 26  1  0
 14 27  1  0
 14 28  1  0
M  END
>  <ALOGPS_LOGP>  (1) 
0.76

>  <ALOGPS_LOGS>  (1) 
-1.12

>  <ALOGPS_SOLUBILITY>  (1) 
1.49e+01 g/l

>  <DATABASE_ID>  (1) 
DB00874

>  <DATABASE_NAME>  (1) 
drugbank

>  <DRUGBANK_ID>  (1) 
DB00874

>  <DRUG_GROUPS>  (1) 
approved; vet_approved

>  <EXACT_MASS>  (1) 
198.089208936

>  <FORMULA>  (1) 
C10H14O4

>  <GENERIC_NAME>  (1) 
Guaifenesin

>  <INCHI_IDENTIFIER>  (1) 
InChI=1S/C10H14O4/c1-13-9-4-2-3-5-10(9)14-7-8(12)6-11/h2-5,8,11-12H,6-7H2,1H3

>  <INCHI_KEY>  (1) 
HSRJKNPTNIJEKV-UHFFFAOYSA-N

>  <INTERNATIONAL_BRANDS>  (1) 
Duratuss G; Ganidin; Hustosil; Hytuss; Robitussin; Scot-tussin Expectorant; Sinumist-SR

>  <JCHEM_ACCEPTOR_COUNT>  (1) 
4

>  <JCHEM_AVERAGE_POLARIZABILITY>  (1) 
20.591929766068

>  <JCHEM_BIOAVAILABILITY>  (1) 
1

>  <JCHEM_DONOR_COUNT>  (1) 
2

>  <JCHEM_FORMAL_CHARGE>  (1) 
0

>  <JCHEM_GHOSE_FILTER>  (1) 
1

>  <JCHEM_IUPAC>  (1) 
3-(2-methoxyphenoxy)propane-1,2-diol

>  <JCHEM_LOGP>  (1) 
0.33746633066666665

>  <JCHEM_MDDR_LIKE_RULE>  (1) 
0

>  <JCHEM_NUMBER_OF_RINGS>  (1) 
1

>  <JCHEM_PHYSIOLOGICAL_CHARGE>  (1) 
0

>  <JCHEM_PKA>  (1) 
15.562404965443942

>  <JCHEM_PKA_STRONGEST_ACIDIC>  (1) 
13.624144565278591

>  <JCHEM_PKA_STRONGEST_BASIC>  (1) 
-2.968617563618232

>  <JCHEM_POLAR_SURFACE_AREA>  (1) 
58.92

>  <JCHEM_REFRACTIVITY>  (1) 
51.239200000000004

>  <JCHEM_ROTATABLE_BOND_COUNT>  (1) 
5

>  <JCHEM_RULE_OF_FIVE>  (1) 
1

>  <JCHEM_TRADITIONAL_IUPAC>  (1) 
guaifenesin

>  <JCHEM_VEBER_RULE>  (1) 
0

>  <MOLECULAR_WEIGHT>  (1) 
198.2158

>  <PRODUCTS>  (1) 
7 Select Mucus Relief; 7 select Tussin DM; Acetaminophen, Dextromethorphan Hydrobromide, Guaifenesin, Phenylephrine Hydrochloride; Acetaminophen, Guaifenesin, Phenylephrine Hydrochloride; Actidom Dmx; Actinel; Actinel Pediatric; Adult CF Cough; Adult Cold, Flu and Sore Throat; Adult Cough and Chest Congestion Relief DM Non Drowsy; Adult Severe Congestion and Cough; Adult Tussin; Adult Tussin CF Multi-Symptom Cold; Adult Tussin Chest Congestion; Adult Tussin Cough and Chest Congestion DM; Adult Tussin Cough and Chest Congestion DM Sugar Free; Adult Tussin Cough and Cold CF; Adult Tussin DM Cough Plus Chest Congestion DM; Adult Tussin DM Lil Drug Store Products; Adult Tussin DM Max; Adults Tussin DM; Air Power; Air-power; Akin; Akin DM; Alka-Seltzer Plus Day Severe Cold Plus Flu; Alka-Seltzer Plus Day and Night Severe Cold and Flu; Alka-Seltzer Plus Max Cough, Mucus and Congestion; Alka-Seltzer Plus Severe Cold, Mucus and Congestion; Alka-Seltzer Plus Severe Cough Mucus and Congestion Day and Night; Alka-Seltzer Plus Severe Cough Mucus and Congestion Liquid Gels; Alka-Seltzer Plus Severe Sinus Cold and Cough Liquid Gels; Allfen DM; Alticotron; Altidesp; Altidome DMX; Altipres; Altipres Pediatric; Altituss; Aquanaz; Aspirin Free Cold Head Congestion Day Time; Assured Maximum Strength Mucus Relief; Auro Mucus - Childrens Cold, Cough and Sore Throat; AuroMucus - Childrens Chest Congestion; AuroMucus - Childrens Cough; AuroMucus - Childrens Multi-Symptom Cold; AuroMucus - Childrens Stuffy Nose and Cold; AuroMucus - Fast Maximum Cold and Sinus; AuroMucus - Fast Maximum Cold, Flu and Sore Throat Relief; AuroMucus - Fast Maximum DM MAX; AuroMucus - Fast Maximum Severe Congestion and Cough; AuroQuil Severe Cold and Flu Daytime Relief; Aurophen Cold Multi-Symptom Severe; Aurophen Cold and Flu Severe; Aurotussin Maximum Strength Daytime and Nighttime Cough Relief; Aurotussin Mucus plus Chest Congestion (ORIGINAL); Aurotussin Peak Cold Cough plus Chest Congestion DM; Aurotussin Peak Cold Maximum Strength Cough plus Chest Congestion DM; Aurotussin Peak Cold Maximum Strength Multi-Symptom Cold; Aurotussin Peak Cold Multi-Symptom Cold; Aurotussin Peak Cold sugar-free COUGH PLUS CHEST CONGESTION DM; Babys Own Cough Syr; Bactimicina Cough and Cold; Baczol Expectorant; Balminil Codeine + Decongestant + Expectorant; Balminil Cough and Flu; Balminil DM + Decongestant + Expectorant; Balminil DM + Decongestant + Expectorant Extra Strength; Balminil DM + Expectorant; Balminil DM + Expectorant Extra Strength; Balminil DM-D-E - Liq; Balminil Expectorant; Balminil Expectorant (sucrose Free); Balminil Expectorant Liq 100mg/5ml; Being Well Adult Cough Relief DM; Benylin 1 Nightime With Menthactin; Benylin 1 With Menthactin; Benylin 2 Cold and Flu With Codeine; Benylin 4 Flu - Syrup; Benylin All-IN-one Cold and Flu Extra Strength; Benylin All-IN-one Cold and Flu Extra Strength Syrup; Benylin All-IN-one Cold and Flu Liquid Gels; Benylin All-IN-one Cold and Flu Night Extra Strength Syrup; Benylin All-IN-one Cold and Flu PE Caplets; Benylin Chest Congestion Extra Strength; Benylin Codeine 3.3mg De Syr; Benylin Cough & Congestion Extra Strength; Benylin Cough Plus Cold Relief; Benylin Cough and Chest Congestion Extra Strength With Warming Sensation; Benylin Cough and Cold; Benylin Cough and Congestion; Benylin DM-D-E; Benylin DM-D-E Extra Strength With Menthactin; Benylin DM-D-E With Menthactin; Benylin DM-D-E-A Cold and Sinus Liquid Gels; Benylin DM-E Menthol Extra Strength Cough and Chest Congestion; Benylin DM-E Syr; Benylin E Menthol Extra Strength; Benylin E Syrup; Benylin Extra Strength All-IN-one Cold and Flu; Benylin Extra Strength All-IN-one Cold and Flu Nightime; Benylin Extra Strength All-IN-one Cold and Flu With Warming Sensation; Benylin Extra Strength Cough Plus Cold Relief; Benylin Extra Strength Mucus & Phlegm; Benylin Extra Strength Mucus & Phlegm Plus Cold Relief; Benylin Extra Strength Mucus & Phlegm Plus Cold Relief Night; Benylin Extra Strength Mucus & Phlegm Plus Cough Control; Benylin Extra Strength With Menthactin; Benylin Extra Strength for People With Diabetes; Berkley Jensen Tussin; Berkley and Jensen Adult Tussin DM; Berkley and Jensen Mucus Relief; Berkley and Jensen Tussin Cough and Chest Congestion DM; Bidex-400; Bio-G-Tuss Pediatric Drops; Bio-S-Pres DX; Bio-Z-Cough; BioGtuss; BioGtuss NF; BioTPres; BioTPres Pediatric; Biobron DX; Biobron SF; Biocof; Biocotron -; Biocotron PED; Biocotron-D; Biodesp DM; Biodesp DM NF; Biogtuss TR; Bionel; Bionel Pediatric; Biophex TR; Biospec DMX; Bisolvine Adult; Bisolvine Child; Breacold Adult; Breacold Children; Bronchial Asthma Relief; Broncho Dilate; Bronchodex Pediatrique; Bronchophan Expectorant (sans Sucrose); Bronco Pulmonar Syrup; Bronco Silen-DM; Broncochem Expectorant II; Broncochem Kids Cold and Flu; Broncochem Maximum Cough; Broncochem Maximum Cough Kids; Broncomar; Broncomar DM; Broncomar EXPECTORANT; Broncomar Expectorant SF; Broncomar Maximum; Broncomar Maximun Cough Relief; Broncomar SF; Broncotron; Broncotron D; Broncotron PED; Broncotron S; Bronkaid Dual Action Formula; Bronkisan; Brontuss DX; Brontuss SF; Brontuss SF-NR; Buckley's Complete Daytime Plus Mucus Relief Softgels; Buckley's Complete Plus Mucous Relief; Buckley's Complete Plus Mucous Relief Extra Strength; Buckley's Complete Relief + Mucus; Buckley's Cough Chest Congestion; Buckley's Cough, Mucous & Phlegm; COLD FLU and SORE THROAT RELIEF; COLD and FLU DAYTIME MAXIMUM STRENGTH NON-DROWSY SEVERE; CVS - Childrens Mucus Relief Cough, Cold and Sore Throat; CVS - Childrens Stuffy Nose and Cold; CVS Chest Congestion Relief DM; CVS Chest Congestion Relief PE; CVS Daytime COLD and FLU RELIEF and Nighttime COLD and FLU RELIEF; CVS HEALTH Chest Congestion Relief; CVS Health Chest Congestion Relief PE; Calmylin #3 Syr; Calmylin Ace; Calmylin Codeine D-E Syr; Calmylin Cough and Flu Liq; Calmylin Expectorant Syr 100mg/5ml; Calmylin Pse With Codeine; Capmist DM; Carbatuss; Care One Chest Congestion Relief DM; Care One cold head congestion; CareOne Adult Tussin; CareOne Adult Tussin CF; CareOne Adult Tussin DM; CareOne Adult Tussin DM sugar free; CareOne Childrens Mucus Relief; CareOne Cold Flu and sore throat; CareOne Cold and Sinus; CareOne Cold plus Flu Severe; CareOne Day Time Severe Cold Night Time Cold and Flu; CareOne Mucus ER; CareOne Mucus Relief; CareOne Mucus Relief Cold and Sinus; CareOne Mucus Relief DM; CareOne Mucus Relief ER; CareOne Mucus Relief Severe Congestion and Cold; CareOne Severe Cold; CareOne Sinus Relief Severe; CareOne Tussin CF Multi Symptom Cold; CareOne Tussin DM cough plus chest congestion; CareOne Tussin Mucus Plus Chest Congestion; Careone Childrens Mucus Relief; Careone Day Severe Cold Night Cold and Flu; Careone Daytime Severe Cold Flu Relief; Careone Mucus Relief Childrens; Careone Severe Sinus Congestion and Pain; Careone daytime severe cold and flu; Centracol Pediatrique - Syr; Cheracol Cough Syrup; Cheracol D Cough Formula 4oz; Cheratussin AC; Cheratussin DAC; Chest Congestion; Chest Congestion Childrens; Chest Congestion Childrens Plus Cough; Chest Congestion Relief; Chest Congestion Syrup; Chest Congestion and Cough HBP; Children's Mucinex Chest Congestion Liquid; Childrens Aurotussin Cough and Chest Congestion DM; Childrens Aurotussin Cough and Cold CF; Childrens Chest Congestion; Childrens Chest Congestion Relief; Childrens Chest Congestion Relief Grape; Childrens Cold, Cough and Sore Throat; Childrens Cough Mucus Relief; Childrens Cough and Chest Congestion DM; Childrens Cough and Cold CF; Childrens Delsym Cough Plus Chest Congestion DM; Childrens Delsym Cough Plus Cold Day Time; Childrens Mucinex Chest Congestion; Childrens Mucinex Cold, Cough and Sore Throat; Childrens Mucinex Congestion and Cough; Childrens Mucinex Cough; Childrens Mucinex Mini-Melts Chest Congestion; Childrens Mucinex Mini-Melts Cough; Childrens Mucinex Multi Symptom Cold and Childrens Mucinex Night Time Multi Symptom Cold; Childrens Mucinex Multi-Symptom Cold; Childrens Mucinex Multi-Symptom Cold and Fever; Childrens Mucinex Stuffy Nose and Cold; Childrens Mucus Relief; Childrens Mucus Relief COUGH; Childrens Mucus Relief Cherry; Childrens Mucus Relief Chest Congestion; Childrens Mucus Relief Cough; Childrens Mucus Relief Cough Cherry; Childrens Mucus Relief DM; Childrens Mucus Relief Expectorant Grape; Childrens Mucus Relief Multi Symptom Cold; Childrens Mucus Relief cough; Childrens Mucus and Cough Relief; Childrens Multi Symptom Cold; Childrens Multi-Symptom Cold; Childrens Multi-Symptom Cold and Fever Relief; Childrens Multi-symptom Cold; Childrens Relief Cherry; Childrens Robitussin Cough and Chest Congestion DM; Childrens Robitussin Cough and Cold CF; Childrens Stuffy Nose and Cold; Childrens Tukol Multi-Symptom Cold and Flu; Childrens Tussin DM; Childrens Tussnex; Childrens Tussnex Multi-symptom cold; Childrens mucus relief; Childrens mucus relief multi-symptom cold; ChildrensRelief Expectorant Grape; Chlo Tuss EX; Chloresin; Choledyl Expectorant Elixir; Circle K Cold; Circle K Multi-Symptom Sinus Relief; Clophed; Coactifed; Codar GF; Codeine Phosphate and Guaifenesin; Codeine-Guaifenesin; Coditussin AC; Coditussin DAC; Cold & Flu; Cold & Flu-IN-one; Cold & Sinus Liquid Fastgels; Cold Chest Congestion PE Regular Strength; Cold Flu and Sore Throat; Cold Flu and Sore Throat Maximum Strength; Cold Flu and Sore Throat Relief Maximum Strength; Cold Head Congestion Non-Drowsy; Cold Head Congestion Severe; Cold Medication Daytime Relief; Cold Multi Symptom Severe; Cold Multi-Symptom Day-time; Cold Multi-Symptom Severe; Cold Multi-Symptom Severe Day Time; Cold Pain Relief; Cold Relief; Cold Relief Cold and Flu Severe; Cold Relief Daytime; Cold Relief Head Congestion; Cold Relief Head Congestion Severe; Cold Relief Multi Symptom; Cold Relief Multi Symptom Severe; Cold Relief Multi-Symptom Severe; Cold Relief Multi-Symptom, Daytime, Nighttime, Non-drowsy; Cold Relief Severe; Cold Relief Severe Head Congestion; Cold Relief Severe Pain Cough; Cold Relief Severe, Multi-symptom; Cold Tabs II; Cold Terminator Max; Cold and Chest Congestion Relief; Cold and Cough; Cold and Cough MULTI-SYMPTOM DAYTIME / NIGHTTIME; Cold and Cough PE; Cold and Flu Capsules; Cold and Flu DayTime, NightTime Severe; Cold and Flu Daytime Severe, Nighttime Severe; Cold and Flu Daytime, Nighttime, Maximum Strength; Cold and Flu Extra Strength Day; Cold and Flu Multi-Symptom Daytime/Nighttime Severe; Cold and Flu Nighttime Relief Syrup Extra Strength; Cold and Flu Relief Non-Drowsy / Daytime Severe / Nighttime Severe; Cold and Flu Relief Severe; Cold and Flu Severe; Cold and Flu Severe Day Time / Night Time; Cold and Flu severe; Cold and Flu-IN-one Extra Strength; Cold and Flu-IN-one Regular Strength; Cold and Head Congestion Relief Severe; Cold and Head Congestion Severe; Cold and Head Congestion Severe/Daytime; Cold and Sinus Complete Liquid Gels; Cold and Sinus Maximum Strength; Cold and Sinus Maximum Strength, Multi-Symptom; Cold and Sinus Maxium Strength; Cold and Sinus PE Pressure, Pain and Cold Non-Drowsy; Cold and Sinus Pain Relief; Cold and Sinus Relief; Cold relief; Cold, Flu and Sore Throat; Cold, Flu and Sore Throat Maximum Strength; Cold, Flu and Sore Throat Maximum Strength, Multi-Symptom; Cold, Flu and Sore Throat Maxium Strength; Cold, Flu and Sore Throat Relief Maximum Strength, Multi Symptom; Cold, Flu, and Sore Throat; Cold-EEZE Childrens Daytime Cough and Chest Congestion Relief; Cold-EEZE Daytime Cold and Flu; Complete Daytime Liquid Capsules; Complete Liquid Capsules; Complete One Cold and Flu Extra Strength; Complete One Cold and Flu Extra Strength Tablets; Complete One Cold and Flu Nightime Extra Strength Liquid; ConRX DayTime; ConRx Cold; ConRx Sinus; Congestac; Contac Cold Chest Congestion; Contac Complete Cough, Cold & Flu Syrup; Contac Cough & Cold Syrup; Core Values Tussin CF; Core Values Tussin DM; Coricidin HBP Chest Congestion And Cough; Coricidin HBP Day and Night; Coricidin II Chest Congestion and Cough; Cosedal Drops; Cough; Cough & Chest Congestion; Cough & Chest Congestion Extra Strength; Cough & Chest Congestion Liquid; Cough & Cold Relief; Cough & Cold Relief Extra Strength; Cough & Cold Soft Gel Caps; Cough Be Gone; Cough Childrens; Cough Cold; Cough Cold and Sore Throat Childrens; Cough Control; Cough Control DM Max; Cough Control DM Sugar Free; Cough Control Extra Strength; Cough Formula Cough and Cold; Cough Out; Cough Plus Chest Congestion Adult DM Max; Cough Plus Cold Relief Syrup; Cough Suppressant and Expectorant DM; Cough Syr W.cod. Pseudoephed.hcl Guaifenesin; Cough Syrup; Cough Syrup DM; Cough Syrup DM - Decongestant - Expectorant; Cough Syrup DM - Decongestant - Expectorant Extra Strength; Cough Syrup DM Decongestant Expectorant; Cough Syrup DM Decongestant and Expectorant With Acetaminophen; Cough Syrup DM Decongestant and Expectorant With Acetaminophen Extra Strength; Cough Syrup DM Expectorant; Cough Syrup DM Expectorant Extra Strength; Cough Syrup DM-D-E; Cough Syrup DM-D-E With Acetaminophen; Cough Syrup DM-D-E With Acetaminophen Extra Strength; Cough Syrup DM-E; Cough Syrup DM-decongestant Expectorant; Cough Syrup DM-decongestant-expectorant Extra Strength; Cough Syrup DM-expectorant; Cough Syrup E  100mg/5ml; Cough Syrup Expectorant; Cough Syrup With Codeine; Cough Tussin; Cough and Chest Congestion; Cough and Chest Congestion DM; Cough and Chest Congestion DM Max; Cough and Chest Congestion DM Maximum Strength; Cough and Chest Congestion Syrup; Cough and Chest Congestion Syrup Extra Strength; Cough and Congestion DM; Cough and Flu Syrup; Cough childrens mucus relief; CounterAct Cough; CounterAct Day; Counteract Cough Medicine - Liq; Creo Grippe Enfants Sup; Creo Grippe Sup Adultes; DESGEN DM Tabs; DG Health Childrens Mucus Relief Cough; DG Health Cold and Flu Relief; DG Health Cold and Flu Relief Daytime; DG Health Fast Acting Mucus Relief Severe Cold; DG Health Fast Acting Mucus Relief Severe Congestion and Cold; DG Health Mucus DM; DG Health Mucus ER; DG Health Mucus Relief; DG Health cold multi symptom severe; DG Health tussin cf adult cough and cold; DM + Expectorant Extra Strength Syrup; DM + Expectorant Syrup; DM Cough Syrup Antitussive and Expectorant; DM Cough and Congestion Relief Adult non-Drowsy Sugar Free; DM Expectorant (extra Strength) Syrup; DM Expectorant Cough Syrup; DM Max Maxium Strength; DM Max Relief Maximum Strength; DM Plus Decongestant Plus Expector.ex.st.syr; DM Plus Decongestant Plus Expectorant Cough Syrup; DM Plus Expectorant Syrup; DM-D-expectorant Cough and Cold Syrup; DM-decongestant-expectorant (extra Strength) Syrup; DM-decongestant-expectorant Syrup; DM-expectorant Syrup; Day Relief; Day Severe Cold Night Cold and Flu; Day Severe Cold and Night Cold and Flu Maximum Strength; Day Time Cold Head Congestion Severe; Day Time Cold Multi-Symptom Cool Blast; Day Time Cold and Flu Severe; Day Time Severe; Day and Night Cold; Day and Night Cold PE; Day and Night Sinus Maximum Strength; DayClear COUGH COLD AND FLU; DayClear SINUS PAIN AND PRESSURE; DayQuil Severe; DayQuil Severe Cold and Flu; DayTime Cold and Flu Severe and NightTime Cold and Flu Severe; DayTime Maximum Strength Cold and Flu; DayTime Severe Cold and Flu Relief; DayTime/NiteTime Severe Cold and Flu Maximum Strength; Dayquil Liquicaps; Daytime; Daytime Cold & Flu Liquid Capsules; Daytime Cold Medication Liquid Fastgels; Daytime Cold Relief Multi Symptom; Daytime Cold and Flu; Daytime Cold and Pain Relief; Daytime Complete; Daytime Cough. Cold. Flu Gel Capsules; Daytime Fast Severe Cold Relief Nitetime Fast Cold and Flu Relief; Daytime Liquid - Liq; Daytime Mucus Relief Nighttime Cold and Flu; Daytime Nighttime Severe Cold and Flu; Daytime Nighttime Severe Cold and Flu Relief; Daytime Nitetime Cold and Flu; Daytime Relief Severe Cold and Flu; Daytime SEVERE COLD and FLU; Daytime Severe; Daytime Severe Cold Multi-symptom; Daytime Severe Cold and Flu; Daytime Severe Cold and Flu Maximum Strength; Daytime Severe Cold and Flu Relief; Daytime Severe Cold and Flu Relief Maximum Strength; Daytime Sinus Nighttime Sinus Maximum Strength; Daytime and Nighttime Cough Relief; Deconex; Deconex DM; Deconex DMX; Deconex Dmx; Deconex IR; Deconex Ir; Defensol Adult Syrup; Defensol-ito; Defensolito Children Syrup; Delsym Cough Plus Chest Congestion DM; Delsym Cough Plus Cold Day Time; Desgen DM; Desgen Pediatric; Despec; Despec DM; Despec EDA Drops; Despec-DM Tabs; Despec-Tab; Dextromethorphan HBr and Guaifenesin; Dextromethorphan HBr, Guaifenesin; Dg Health Childrens Mucus Relief; Dg Health Cold Head Congestion Severe Day Time; Dg Health Cold and Flu Severe; Dg Health Mucus Relief; Dg Health Mucus Relief ER; Dg Health Tussin DM Adult; Diabetic Maximum Strength Siltussin DM DAS-Na; Diabetic Siltussin DAS-Na; Diabetic Siltussin DM DAS-Na; Diabetic Tussin DM; Diabetic Tussin DM Maximum Strength; Diabetic Tussin Expectorant; Dimetane Expectorant C; Dimetane Expectorant Dc; Dimetane Expectorant Liq; Dimetane Expectorant-C Syr; Dimetane Expectorant-DC Syr; Dimetapp Cough & Congestion Liquid; Dometuss-DM; Dometuss-G; Dometuss-dmx; Donatussin; Donatussin DROPS; Double Tussin Intense Cough Reliever DM; Dover Coldonyl; Dr. Cocoa Mucus Relief; Duraflu; Duravent DM; Duravent PE; Dymetadrine 25 - Tab; EXPECTUSS Liquid; Ed Bron Gp; Entex LA; Entex LA Tablets Srt; Entex Lq; Entex T; Entre-Cough; Ephed Asthma; Ephed Plus Liquid; Ephedrine V With Guaifenesin; Equaline Chest Congestion Relief; Equaline Chest Congestion Relief DM DM; Equaline Childrens Mucus Relief; Equaline Daytime Severe Cold Fast Relief Nighttime Cold and Flu Fast Relief; Equaline Daytime Severe Cold and Flu Relief; Equaline Mucus DM; Equaline Mucus ER; Equaline Mucus Relief; Equaline Tussin Cough and Cold; Equaline Tussin Mucus and Chest Congestion; Equaline Tussin Multi Symptom; Equaline adult tussin cough and chest congestion; Equaline mucus relief; Equaline tussin adult; Equaline tussin chest congestion; Equaline tussin cough and chest congestion dm max; Equate Adult Tussin DM Max Daytime Nighttime; Equate DayTime Severe; Equate Daytime Severe; Equate Mucus DM; Equate Mucus ER; Equate Mucus ER Max; Equate Tussin Adult Chest Congestion; Equate Tussin CF; Equate Tussin DM Max; Equate Tussin DM adult; Excaugh; ExeClear C; ExeFen DMX; Expectorant; Expectorant (extra Strength) Syrup; Expectorant (regular Strength) Cough Syrup; Expectorant 12 Hour; Expectorant Cough Childrens; Expectorant Cough Formula Syr 100mg/5ml; Expectorant Cough Syrup 100mg/5ml; Expectorant DM Cough Extra Strength; Expectorant DM Cough Extra Strength With Decongestant; Expectorant DM Cough Syrup; Expectorant Syrup; Expectorant Syrup (sucrose Free); Expectorant Syrup Extra Strength; Expectorant Tab DM; Expectorant plus Cough Relief; Expectorant-decongestant Syrup; Extra Strength Cough Plus Cold Relief Syrup; Extra Strength Cough Syrup Expectorant; Extra Strength E (expectorant Syrup); Extra Strength Mucous Relief Chest; Extra Strength Mucous Relief Cough; Extra Strength Neocitran Cold Syrup With Mucus Relief; Extra Strength Tylenol Complete Cold, Cough & Flu; Extra Strength Tylenol Complete Cold, Cough & Flu Daytime; Extra Strength Tylenol Complete Cold, Cough & Flu Plus Mucus Relief; Extra Strength Tylenol Complete Cold, Cough & Flu Plus Mucus Relief Nighttime; Extra Strength Tylenol Congested Cough Caplets; Extra action Cough; Facol Cold and Flu Day; Facol Cold and Flu Day and Night; Facol Cold and Flu Night; Family Care Cough and Cold; Family Care Multi Symptom Cold; Fast Acting Mucus Relief Maximum Strength Severe Cough and Congestion; Fast Cold and Flu Relief; Fast Maximum Severe Congestion and Cough; Fast Mucus Relief; Fast Mucus Relief Cold Flu and Sore Throat Maximum Strength Multi-Symptom; Flowtuss; Flu Relief Cold and Chest Congestion; Flu, Cough & Cold Complete; Flu, Cough & Cold Complete Day and Night; FormuCare Cough Syrup DM; Freds Chest Congestion Relief DM; G Tron; G Tussin AC; G-Supress DX; G-Tuss-NL; G-Tuss-NL Ped; G-Xpect PSE; G-bronco-D; G-tron Ped; G-tron Pediatric Drops; G-tusicof; G-zyncof; Gadavyt Cough; Gadavyt Cough DM; Geri-tussin Expectorant; Gilphex TR; Giltuss; Giltuss Pediatric; Giltuss Total Release; Good Neighbor Pharmacy Childrens Mucus Relief; Good Neighbor Pharmacy Cold Multi Symptom; Good Neighbor Pharmacy Cold Severe; Good Neighbor Pharmacy Day Time; Good Neighbor Pharmacy Day Time Severe; Good Neighbor Pharmacy Mucus D; Good Neighbor Pharmacy Mucus DM; Good Neighbor Pharmacy Mucus ER; Good Neighbor Pharmacy Mucus Relief; Good Neighbor Pharmacy Mucus Relief DM; Good Neighbor Pharmacy Mucus Relief PE PE; Good Neighbor Pharmacy Mucus Relief Severe Cold; Good Neighbor Pharmacy Mucus Relief Severe Cold Cold and Flu Night Time; Good Neighbor Pharmacy Mucus Relief Severe Congestion and Cold; Good Neighbor Pharmacy Mucus Relief cold and sinus; Good Neighbor Pharmacy Severe Day Time; Good Neighbor Pharmacy Sinus Relief; Good Neighbor Pharmacy Sinus Relief Day Time Night Time; Good Neighbor Pharmacy Tab Tussin DM DMTDM; Good Neighbor Pharmacy TabTussin; Good Neighbor Pharmacy Tussin; Good Neighbor Pharmacy Tussin CF; Good Neighbor Pharmacy Tussin CF Max; Good Neighbor Pharmacy Tussin DM; Good Neighbor Pharmacy Tussin DM Max; Good Neighbor Pharmacy Tussin dm; Good Neighbor Pharmacy mucus er; Good Neighbor Pharmacy tussin dm max adult; Good Sense Adult Tussin DM; Good Sense Childrens Mucus Relief; Good Sense Childrens Mucus Relief Cough; Good Sense Cold Head Congestion Severe; Good Sense Cold and Flu Severe; Good Sense Day Time; Good Sense Mucus D; Good Sense Mucus ER; Good Sense Mucus Relief; Good Sense Mucus Relief Cold and Sinus; Good Sense Mucus Relief Severe Congestion and Cold; Good Sense Mucus Relief cold flu and sore throat; Good Sense Severe Cold; Good Sense Severe Daytime Cold and Flu; Good Sense Sinus Relief; Good Sense Tussin CF; Good Sense Tussin CF Cough and Cold; Good Sense Tussin CF Max; Good Sense Tussin Chest Congestion; Good Sense Tussin DM; Good Sense Tussin DM Cough and Chest Congestion; Good Sense Tussin Mucus and Chest Congestion; Good Sense cold multi symptom; Good Sense tussin dm max; Good neighbor pharmacy mucus relief; Goyescas 7 Syrups Alcohol and Sugar Free Cough and Cold; Goyescas 7 Syrups Original Cough and Cold; Goyescas 7 Syrups with Bee Honey Cough and Cold; Goyescas Broncovac 1 Cough and Cold; Goyescas Broncovac 2 Cough and Cold; Goyescas Broncovac 3 Cough and Cold; Green Guard Cough and Cold Relief; Green Tussin DM; Green Tussin SUGAR FREE DM; Guaap; Guaiasorb DM; Guaiatussin AC; Guaifenesin; Guaifenesin AC; Guaifenesin DAC; Guaifenesin DM; Guaifenesin Extended Release; Guaifenesin Extended Release Extended Release; Guaifenesin Extended-Release; Guaifenesin Phenylephrine Dextromethorphan; Guaifenesin Syrup Extra Strength 200mg/5ml; Guaifenesin and Codeine Phosphate; Guaifenesin and Codeine Phosphate SF; Guaifenesin and Dextromethorphan; Guaifenesin and Dextromethorphan HBr; Guaifenesin and Dextromethorphan Hydrobromide; Guaifenesin and Pseudoephedrine Hydrochloride; Guaifenesin and pseudoephedrine hydrochloride Extended Release; Guaifenesine Liq 100mg/5ml; Guaifenesine Liq 100mg/5ml Sans Sucrose; Guaitussin DM Cough Formula Syr; Guaitussin DM Syrup; Guiafenesin; Guiatuss; H E B MAX SEVERE CONGESTION and COUGH Maxium Strength; HEB Day Time Night Time Severe Cold and Flu; Handy Solutions Cold Relief; Handy Solutions Sinus Congestion and Pain Relief; Harmon Face Values Tussin CF; Harmon Face Values Tussin DM Adult; Harris Teeter Mucus Relief D; Harris Teeter Mucus Relief DM; Harris Teeter Mucus Relief Max; Harris Teeter Sinus Relief; Harris Teeter Tussin; Head Congestion Cold Relief Severe Non-Drowsy; Head Congestion and Cold Relief Daytime; Health Mart Adult Tussin; Health Mart Adult Tussin DM; Health Mart Daytime; Health Mart Mucus D; Health Mart Mucus ER; Health Mart Severe Cold and Flu; Health Mart mucus relief DM; Health Mart mucus relief d; HealthMart Chest Congestion Relief; HealthMart Chest Congestion Relief DMDM DM; HealthMart Mucus Relief FM; Healthy Accents Childrens Mucus Relief; Healthy Accents Cold and Flu; Healthy Accents Daytime Nighttime Cold and Flu; Healthy Accents Mucus Relief; Healthy Accents Mucus Relief DM; Healthy Accents Mucus Relief Severe Cold; Healthy Accents Mucus Relief Severe Congestion and Cold; Healthy Accents Mucus Relief cold and sinus; Healthy Accents Mucus Relief cold flu and sore throat; Healthy Accents Sinus Relief; Healthy Accents Tussin; Healthy Accents Tussin CF; Healthy Accents Tussin Chest Congestion Adult; Healthy Accents Tussin DM; Healthy Accents Tussin DM Adult Sugar Free; Healthy Accents Tussin DM cough and chest congestion; Healthy Accents cold head congestion daytime non drowsy; High Blood Pressure Chest Congestion and Cough; Histenol Forte II; Histenol II; Humana Pharmacy Tussin Multi Symptom Cold; Hycofenix; I D M Expectorant Tab; I.D.M. Solution; Igualtuss; Immediate-release Mucus Relief DM; Iophen C NR; Iophen DM NR; Iophen NR; J-max; J-max Dhc; Jack & Jill Cough Syrup; Jack & Jill Expectorant; Jay-Phyl; KMart - Fast Maximum Cold and Sinus; KMart - Fast Maximum Cold, Flu and Sore Throat Relief; KMart - Fast Maximum DM MAX; KMart - Fast Maximum Severe Congestion and Cough; Kids-EEZE Chest Relief; Klernaz; Koffex DM + Decongestant + Expectorant; Koffex DM + Decongestant + Expectorant Extra Strength; Koffex DM + Expectorant; Koffex DM + Expectorant Extra Strength; Koffex DM-D-E - Liq; Koffex Expectorant; Koffex Expectorant Sans Sucrose; Kroger Cough Cold and Flu; Kroger Sinus Pain and Pressure; LEADER Chest Congestion Relief PE; LEADER iNTENSE COUGH RELIEVER; Leader Adult Tussin Chest Congestion; Leader Adult Tussin DM; Leader Adult Tussin Mucus Plus Chest Congestion; Leader Chest Congestion Relief G450; Leader Chest Congestion Relief Plus DMDM DM; Leader Childrens Mucus Relief; Leader Childrens Mucus Relief Cough; Leader Childrens Mucus Relief Multi Symptom Cold; Leader Cold Head Congestion; Leader Cough Tabs; Leader Day Time; Leader Daytime Severe Cold and Flu; Leader Mucus DM; Leader Mucus ER; Leader Mucus ER Max; Leader Mucus Relief; Leader Mucus Relief Childrens; Leader Mucus Relief Cold Flu and Sore Throat; Leader Mucus Relief Cold and Sinus; Leader Mucus Relief Sever Cold; Leader Mucus Relief Severe Congestion and Cold; Leader Severe Cold and Flu; Leader Sinus Relief; Leader TabTussin 400; Leader TabTussin DM TDM; Leader Tussin; Leader Tussin CF; Leader Tussin CF Max; Leader Tussin DM; Leader mucus relief cold and sinus; Leader severe cold and flu; Leader sinus relief; Leader tussin dm max adult; Libera Tos; Licorice Coughing Liquid; Lil Drug Store Cold Relief; Lil Drug Store Multi-Symptom Sinus Relief; Lil Drug Store Multi-Symptom Sinus Severe Congestion; Liqufruta; Liquituss GG; Little Remedies Little Colds Mucus Relief Expectorant Melt Aways; Lortuss EX; Lusair; M-clear Wc; MAX Cold, Flu, and Sore Throat; MAXIUM STRENGTH SEVERE CONGESTION and COUGH MAX; Madame Pearl's Cough Syrup; Mar-cof Cg Expectorant; Maximum Strength Cough Plus Chest Congestion DM; Maximum Strength Daytime Cold/Flu Relief; Maximum Strength Mucus DM Extended Release; Maximum Strength Mucus Relief Cold Flu and Sore Throat; Maximum Strength Mucus Relief Cold,Flu and Sore Throat; Maximum Strength Mucus Relief DM; Maximum Strength Mucus Relief Severe Congestion and Cough; Maximum Strength Mucus-DM; Maximum Strength-Cough and Chest Congestion DM; Maximum strength Tussnex FM DM Max; Maxiphen; Maxiphen DM; Maxium Strength DM Max; Medi-First Cold Relief; Medi-First Plus Cold Relief; Medique CCP Caffeine Free; Medique Decorel Forte Plus; Medique Guaicon DMS; Members Mark mucus relief DM; Members Mark mucus relief ER; Moore Medical MooreBrand Severe Cold Relief; MucaPlex; MucaphEd; Mucinex; Mucinex D; Mucinex D Maximum Strength; Mucinex DM; Mucinex DM Maximum Strength; Mucinex Extended Release Bi-layer Tablets; Mucinex Fast-Max Cold and Sinus; Mucinex Fast-Max Cold, Flu and Sore Throat; Mucinex Fast-Max Cold, Flu and Sore Throat Clear and Cool; Mucinex Fast-Max Congestion and Headache; Mucinex Fast-Max Congestion and Headache Clear and Cool; Mucinex Fast-Max DM Max; Mucinex Fast-Max Day Severe Cold and Night Cold and Flu; Mucinex Fast-Max Day Time Severe Cold and Mucinex Fast-Max Night Time Cold and Flu Maximum Strength; Mucinex Fast-Max Day Time Severe Congestion and Cough - Mucinex Fast-Max Night Time Cold and Flu Maximum Strength; Mucinex Fast-Max Day Time Severe Congestion and Cough and Mucinex Fast-Max Night Time Cold and Flu Maximum Strength; Mucinex Fast-Max SEVERE COLD; Mucinex Fast-Max Severe Cold; Mucinex Fast-Max Severe Congestion and Cold; Mucinex Fast-Max Severe Congestion and Cough; Mucinex Fast-Max Severe Congestion and Cough Clear and Cool; Mucinex Fast-Max Severe Congestion and Cough Clear and Cool and Mucinex Fast-Max Night Time Cold and Flu Clear and Cool; Mucinex Fast-Max Severe Congestion and Cough Liquid Pouches; Mucinex Maximum Strength; Mucinex Multi-action Cold & Sinus Caplets; Mucinex Multi-action Cold & Sinus Liquid; Mucinex Multi-action Cold, Flu & Sore Throat Caplets; Mucinex Multi-action Cold, Flu & Sore Throat Liquid; Mucinex Multi-action Congestion & Cold Caplets; Mucinex Multi-action Congestion, Stuffy Nose & Cough Liquid; Mucinex Multi-action Wet & Dry Cough Liquid; Mucinex Sinus - Max Day / Night; Mucinex Sinus-Max Day Night Maximum Strength; Mucinex Sinus-Max Day Time Severe Congestion Relief and Mucinex Sinus-Max Night Time Congestion and Cough Maximum Strength; Mucinex Sinus-Max Pressure and Pain; Mucinex Sinus-Max Pressure, Pain and Cough; Mucinex Sinus-Max Severe Congestion Relief; Mucinex Sinus-Max Severe Congestion Relief Clear and Cool; Mucinex Sinus-Max Severe Congestion Relief Maximum Strength; Mucinex Sinus-action Complete Congestion and Sinus Pain; Mucinex Sinus-action Pressure, Pain & Congestion; Mucosa; Mucosa DM; Mucous Relief; Mucus; Mucus & Phlegm Relief Extra Strength; Mucus & Phlegm Relief With Cough Control Extra Strength; Mucus & Phlegm Syrup; Mucus Congestion and Cough Relief Childrens; Mucus D; Mucus D ER; Mucus DM; Mucus DM Extended Release; Mucus DM Max; Mucus ER; Mucus ER Max; Mucus Extended Release; Mucus Multi Symptom Cold Relief Childrens; Mucus Releif Expectorant; Mucus Relief; Mucus Relief Chest; Mucus Relief Chest Congestion; Mucus Relief Cold Flu Sore Throat Maximum Strength; Mucus Relief Cold Flu and Sore Throat; Mucus Relief Cold Flu and Sore Throat Max Maximum Strength; Mucus Relief Cold Flu and Sore Throat Maximum Strength; Mucus Relief Cold and SInus Max Maximum Strength; Mucus Relief Cold and Sinus; Mucus Relief Cold and Sinus Maximum Strength; Mucus Relief Cold, Flu and Sore Throat; Mucus Relief Cold, Flu and Sore Throat Maximum Strength; Mucus Relief Cold, Flu, and Sore Throat Maximum Strength; Mucus Relief Congestion and Cough Maximum Strength; Mucus Relief Cough; Mucus Relief Cough Childrens; Mucus Relief Cough and Congestion DM; Mucus Relief D; Mucus Relief D Immediate Release; Mucus Relief DM; Mucus Relief DM Cough Maximum Strength; Mucus Relief DM Expectorant and Cough Suppressant; Mucus Relief DM Immediate Release; Mucus Relief DM MAX; Mucus Relief DM MAX Maximum Strength; Mucus Relief DM Max; Mucus Relief DM Max Maximum Strength; Mucus Relief DM Max Maximum Strength Fast Acting; Mucus Relief DM Maximum Strength; Mucus Relief DMImmediate Release Immediate Release; Mucus Relief Day Time and Night Time; Mucus Relief Daytime/Nighttime; Mucus Relief Daytime/Nighttime/Maximum Strength; Mucus Relief ER; Mucus Relief Expectorant; Mucus Relief Immediate Release; Mucus Relief MAXIMUM STRENGTH; Mucus Relief Max; Mucus Relief Maximum Strength; Mucus Relief Maximum Strength DM Max; Mucus Relief Maximum Strength Multi Symptom Relief; Mucus Relief Maximum Strength Severe Congestion and Cough; Mucus Relief Maximum StrengthCold Flu and Sore Throat; Mucus Relief PE; Mucus Relief PE Sinus Congestion; Mucus Relief Plus; Mucus Relief Severe Cold; Mucus Relief Severe Cold Daytime Maximum Strength; Mucus Relief Severe Congestion Cough Maximum Strength; Mucus Relief Severe Congestion and Cold; Mucus Relief Severe Congestion and Cold Max Maximum Strength; Mucus Relief Severe Congestion and Cough; Mucus Relief Severe Congestion and Cough Maximum Strength; Mucus Relief Severe Cough and Congestion; Mucus Relief Severe Sinus Congestion Maximum Strength; Mucus Relief Sinus; Mucus Relief Sinus Congestion Daytime Nighttime Maximum Strength; Mucus Relief Sinus Day and Night; Mucus Relief Sinus Pressure and Pain; Mucus Relief Sinus Severe Congestion Relief; Mucus Relief cold and sinus; Mucus Relief cold flu and sore throat; Mucus Relief, Cold, Flu and Sore Throat Maximum Strength, Multi-Symptom; Mucus ReliefImmediate Release Immediate Release; Mucus and Chest Congestion; Mucus and Cough Relief; Mucus and Sinus PE; Multi Symptom Cold; Multi Symptom Cold CF; Multi Symptom Cold CF Adult; Multi Symptom Cold Double Max Power; Multi Symptom Cold Relief CF Non Drowsy; Multi-Symptom Cold; Multi-Symptom Cold Flu and Sore Throat Maximum Strength; Multi-Symptom Cold Severe, Non-Drowsy, Daytime; Multi-Symptom Cold and Cough Daytime Nighttime; Multi-Symptom Cold and Sinus Maximum Strength; Neo Tuss Syr; Nezger Tab; Ninjacof-XG; NiteTime DayTime Severe Cold and Flu; Nivanex DMX; Non Drowsy Cold and Cough PE; Non Drowsy Regular Strength Contac Cold Chest Congestion; Non-Drowsy Wal-Phed PE Triple Relief; Non-Drying Sinus PE; Novahistex DM Expectorant With Decongestant; Novahistex Dh Expectorant; Novahistex Expectorant With Decongestant; Novahistine DM Expectorant With Decongestant; Nu-copd; Obredon; Organ I Nr; Organ-I Nr; Ornade Expectorant Cough Formula; PE multi-stymptom cold and cough relief; PECGEN PSE Cough Suppressant Expectorant Nasal Decongestant GRAPE Flavor; PRESSURE plus PAIN plus MUCUS; Pancold S Oral; Panto A; Pecgen DMX; Pecgen Dmx; PediaCare Childrens Cough and Congestion; Pediacare Childrens Cough And Congestion; Pharmitussin DM; Physicians Care Cold Cough; PhysiciansCare Cold and Cough Non-Drowsy; Poly Hist CB; Poly-Vent DM; Poly-Vent IR; Poly-tussin EX; Preferred Plus Chest Congestion Relief; Preferred Plus Chest Congestion Relief DMTDM TDM; Preferred Plus Chest Congestion Relief PE; Preferred Plus Childrens Mucus Relief Multi Symptom Cold; Preferred Plus Day Time Cold and Flu; Preferred Plus Intense Cough Reliever; Preferred Plus Mucus ER; Preferred Plus Mucus Relief; Preferred Plus Mucus Relief Cold and Sinus; Preferred Plus Severe Cold; Preferred Plus Severe Cold Day Time Cold and Flu Night Time; Preferred Plus Severe Day Time; Preferred Plus Sinus Relief; Preferred Plus Sinus Relief Day Tiime Night Time; Preferred Plus TabTussin; Preferred Plus TabTussin DM DMTDM; Premier Value Chest Congestion Relief; Premier Value Chest Congestion and cough releif DM; Premier Value Chest and Sinus Congestion relief; Presgen; Presgen Pediatric; Pressure Pain Cold PE; Pressure Pain Mucus PE; Pressure Plus Pain PE Plus Cold; Pressure and Pain PE Plus Cold; Pressure and Pain PE Plus Mucus; Pressure and Pain and Cold; Pressure plus Pain PE plus Mucus; Pressure plus Pain plus Mucus Non-Drowsy; Primatene; Prime's Sore Throat, Cough and Colds Capsules; Pulmorex Expectorant Liq; Pulmorphan; Pulmovac; Q Tussin DM; Q-Tussin; QTussin; Quality Choice Mucus Relief; Quality Choice Mucus Relief DM DM; Quality Choice Mucus Relief PE PE; Rabofen DM; Rapid Max Maximum Strength Cool and Clear - Cold, Flu and Sore throat; Rapid Max Maximum Strength Cool and Clear - Cold, Severe Congestion and Cough; Ratio-cotridin Expectorant; Ratio-theo-bronc; Reese ONETAB Congestion and cough; Refenesen; Refenesen Chest Congestion Relief; Refenesen Chest Congestion Relief PE; Refenesen Chest Congestion Relief pe; Regular Strength Mucous Relief Chest; Regular Strength Tylenol Cold Chest Congestion; RelCof IR; RelCof-C; Relhist DMX; Rescon GG; Respaire-30; Rexall DM Cough and Congestion Relief; Ritussin DM; Ritussin Expectorant; Robafen; Robafen AC; Robafen CF Cough and cold; Robafen Cough Formula; Robafen DM Cough Sugar Free Clear; Robafen DM Max Non drowsy; Robi DM Max Cough Congestion 10ct Blister; Robitussin Ac; Robitussin Cough & Cold Extra Strength; Robitussin Cough Control; Robitussin Cough Control Extra Strength; Robitussin Cough Control for People With Diabetes; Robitussin Cough and Cold; Robitussin Cough and Cold Liqui-gels; Robitussin Cough, Cold & Flu Liqui-gels; Robitussin Maximum Strength Cough Plus Chest Congestion DM; Robitussin Mucus & Phlegm; Robitussin Mucus & Phlegm Extra Strength; Robitussin Mucus Plus Chest Congestion; Robitussin Peak Cold Cough Plus Chest Congestion DM; Robitussin Peak Cold Maximum Strength Cough Plus Chest Congestion DM; Robitussin Peak Cold Maximum Strength Multi-symptom Cold; Robitussin Peak Cold Multi-Symptom Cold; Robitussin Peak Cold Sugar-Free Cough Plus Chest Congestion DM; Robitussin Severe Multi-Symptom Cough Cold Flu; Robitussin Syrup With Codeine; Robitussin To Go Cough and Chest Congestion DM; Robitussin To Go Cough and Cold CF; Rompe Pecho; Rompe Pecho CF; Rompe Pecho DM; Rompe Pecho EX; Rompe Pecho Max Multi Symptoms; Rompe Pecho SF; Rugby Cough Syrup Guaifenesin; Rugby Mucus ER; Rx Act Tussin CF Cough and Cold; Rx Act Tussin Chest Congestion; SIMPEX Guaifenesin; SUDAFED PE Pressure PLUS Pain PLUS Mucus; Safetussin DM; SanaTos Childrens Mucus Relief Cough; Sancochito Compuesto; Scot-Tussin Expectorant Cough; Scot-Tussin Expectorant SF Cough; Scot-Tussin Senior Maximum Strength Cough Suppressant and Expectorant; Scot-Tussin Senior SF DMEXP; Select Brand Coughtab 400; Select Brand Mucus Relief; Select Brand Mucus Relief DM; Select Brand Mucus Relief PE; Select Brand Tab Tussin; Select Brand Tab Tussin DM; SelectHealth Tussin DM; Sever Daytime Cold and Flu and Sever Nighttime Cold and Flu; Severe Cold; Severe Cold Daytime Cold and Flu Nighttime; Severe Cold Daytime Multi-Symptom Non-Drowsy; Severe Cold Head Congestion; Severe Cold Multi Symptom; Severe Cold Multi-Symptom; Severe Cold Plus Flu Daytime Nighttime; Severe Cold Relief; Severe Cold and Flu; Severe Cold and Flu Daytime; Severe Cold and Flu Daytime/nighttime; Severe Cold and Flu Maximum Strength, Daytime, Non-Drowsy; Severe Cold and Flu Relief; Severe Cold and Mucus; Severe Cold, Cold and Flu Daytime, Nighttime, Maximum Strength; Severe Cold, Cold and Flu Maximum Strength, Daytime, Nightime; Severe Congestion Relief Maximum Strength Sinus; Severe Congestion and Cold Maximum Strength; Severe Congestion and Cold Maximum Strength/ Multi-Symptom; Severe Congestion and Cold Relief Maximum Strength, Multi Symptom; Severe Congestion and Cough; Severe Congestion and Cough MAX Maxium Strength; Severe Congestion and Cough Multi-Symptom Maximum Strength; Severe Congestion and Cough Relief; Severe Congestion and Cough Relief Maximum Strength; Severe Congestion and Cough, Cold and Flu Daytime and Nighttime; Severe Congestion and Cough, Cold and Flu Daytime, Nighttime; Severe Congestion and Cough/ Cold and Flu Daytime/nighttime; Severe Congestion and Cough/Cold and Flu Daytime/Nighttime/Maximum Strength; Severe Daytime; Severe Multi-Symptom Cold; Severe Sinus; Severe Sinus Congestion; Severe Sinus Congestion Relief Maximum Strength; Severe Sinus Congestion and Pain; Severe Sinus Congestion and Pain Daytime; Severe Sinus Congestion and Pain Non-Drowsy, Daytime; Severe Sinus Daytime, Non-Drowsy; Severe Sinus Pain and Congestion Daytime; Severe Wal Tussin CF Max; Severe sinus Congestion Relief; ShopRite Adult Tussin; ShopRite Day Calm Severe; ShopRite Severe Cold; Shopko Chest Congestion Relief; Shopko Chest Congestion Relief DMTDM TDM; Shoprite Adult Tussin; Shoprite Congestion and Pain; Shoprite Day Calm Severe; Shoprite Mucus Relief; Signature Care Mucus Relief; Signature Care Mucus Relief DM; Signature Care Mucus Relief Max; Signature Care Non drowsy Daytime Severe Cold and Flu Relief; Signature Care Tussin; Signature Care daytime nighttime severe cold and flu relief; Siltussin DAS; Siltussin DM; Siltussin DM DAS Cough Formula; Siltussin SA; Simply Right Mucus Relief; Sinus Congestion And Pain Daytime; Sinus Congestion PE; Sinus Congestion and Pain; Sinus Congestion and Pain Daytime Non-Drowsy Severe; Sinus Congestion and Pain Non Drowsy; Sinus Congestion and Pain Relief; Sinus Congestion and Pain Relief Non-Drowsy/Daytime; Sinus Congestion and Pain Severe; Sinus Congestion and Pain Severe Daytime,Non-Drowsy; Sinus Medication; Sinus PE Pressure, Pain and Cold Daytime, Non-Drowsy; Sinus PE Pressure, Pain and Mucus; Sinus Pressure and Pain; Sinus Pressure and Pain Maximum Strength; Sinus Pressure and Pain Relief extra strength; Sinus Relief; Sinus Relief Congestion and Pain Severe; Sinus Relief Daytime, Nighttime, Maximum Strength; Sinus Relief Maximum Strength; Sinus Relief Maximum Strength Daytime and Nighttime Sinus Pain; Sinus Relief PE Maxium Strength; Sinus Relief Severe Congestion; Sinus Relief Severe Congestion Maximum Strength; Sinus Severe; Sinus Severe Daytime; Sirop DM Expectorant; Sirop Expectorant; Skopko Chest Congestion Relief PE PE; Smart Sense Adult Tussin DM sugar free; Smart Sense Adults Tussin CF Multi Symptom Cold; Smart Sense Chest Congestion; Smart Sense Childrens Mucus Relief; Smart Sense Cough and Chest Congestion; Smart Sense Cough and chest congestion; Smart Sense DayTime; Smart Sense Mucus ER; Smart Sense Mucus Relief Cough Childrens; Smart Sense Mucus Relief ER; Smart Sense Mucus and Chest Congestion; Smart Sense Multi Symptom Cold; Smart Sense Severe Cold; Smart Sense Sinus Relief; Smart Sense Tussin CF Adult; Smart Sense Tussin DM; Smart Sense cold flu and sore throat; Smart Sense daytime cold and flu; Smart Sense tussin adult; Smart Sense tussin dm max adult; SohMed Cold Relief; SohMed Sinus; Sorbugen; Sorbutuss NR; Sound Body Cold and Flu Relief; Sound Body Mucus Relief; Sound Body Tussin CF; Sound Body Tussin DM; Stona Cough; Sudafed Cold and Flu Gel Caps; Sudafed PE Cold and Flu Caplets; Sudafed PE Pressure Plus Pain Plus Cold; Sudafed PE Total; Sudafed Total Cold and Flu Rapid Release; Sun Mark Mucus Relief Cough Childrens; Sun Mark Tussin DM cough and chest congestion; Sunmark Adult Tussin DM; Sunmark Chest Congestion Relief DM DM; Sunmark Chest Congestion Relief PE PE; Sunmark Cold and Flu Severe; Sunmark Mucus ER; Sunmark Tussin; Sunmark Tussin CF; Sunmark Tussin Chest Congestion; Sunmark Tussin DM Sugar Free; Sunmark cold head congestion; Sunmark mucus relief DM; Sunmark mucus relief d; Supress DM; Supress DX Pediatric Drops; Supress-PE Pediatric; Syrup DM-D-E; Syrup DM-E; TRISPEC DMX Cough Suppressant Expectorant Peach Flavor; TRISPEC DMX Pediatric Drops Cough Suppressant Expectorant CHERRY RASPBERRY Flavor; TRISPEC PSE Cough Suppressant Expectorant Nasal Decongestant GRAPE Flavor; TRISPEC PSE Pediatric Drops Cough Suppressant Expectorant Nasal Decongestant GRAPE Flavor; TYLENOL Cold Multi-Symptom Severe; TYLENOL Cold Plus Flu Severe; TYLENOL Cold Plus Mucus Severe; TYLENOL Sinus Congestion And Pain Severe; TexaClear Kids Cough and Cold; Texaclear Congestion and Pain Sinus Relief; Texaclear Daytime Cough Cold/flu; The Medicine Shoppe Chest Congestion Relief; Theraflu ExpressMax Severe Cold and Flu Caplets; Theraflu ExpressMax Severe Cold and Flu Syrup; Theraflu Flu and Chest Congestion; Theraflu Max-D; Theraflu Warming Relief Cold and Chest Congestion; TopCare Mucus D; TopCare Mucus DM; TopCare Mucus ER; TopCare Mucus Relief and Cold and Flu; Topcare Childrens Mucus Relief Multi Symptom Cold; Topcare Cold; Topcare Cold Head Congestion Severe; Topcare Cold Multi Symptom Severe; Topcare Cold and Flu; Topcare Day Time Cold and Flu; Topcare Day Time Cold and Flu Severe; Topcare Day Time Nite Time Cold and Flu; Topcare Mucus Relief; Topcare Mucus Relief Cold Flu and Sore Throat; Topcare Mucus Relief Severe Congestion and Cold; Topcare Mucus Relief cold and sinus; Topcare Sinus Relief; Topcare Sinus Relief Day Time Night Time; Topcare Tussin CF Max; Topcare Tussin Chest Congestion; Topcare Tussin DM; Topcare Tussin DM Max; Topcare Tussin Mucus Plus Chest Congestion; Topcare mucus er; Topcare mucus relief; Topcare mucus relief cold flu and sore throat; Topcare sinus relief pressure and pain; Topcare tussin dm sugar free cough and chest congestion; Topco tussin cf max; Total Cold & Flu; Total Cold & Flu Combo; Total Cold and Flu; Total Cold and Flu Extra Strength; Triaminic Chest and Nasal Congestion; Triaminic Cough and Congestion; Triaminic DM Daytime Syr; Triaminic DM Expectorant Syr; Triaminic Decongest+expect Liqui-gels Cap; Triaminic Expectorant Dh Syrup; Triaminic Expectorant Syr; Tricode GF; Tukol A; Tukol Cough and Congestion; Tukol MAX ACTION Cold, Sore Throat and Cough; Tukol MAX ACTION Severe Congestion and Cough; Tukol Max Action Cold Sore Throat and Cough; Tukol Max Action Severe Congestion and Cough; Tukol Maxium Strength Cough and Mucus Relief; Tukol Multi Symptom Cold; Tukol X-Pecto Miel Multi Symptom Cold; Tusicof; Tusnel; Tusnel C; Tusnel DM Pediatric; Tusnel Diabetic; Tusnel Pediatric; Tussi Pres; Tussi Pres Pediatric; Tussin; Tussin Adult; Tussin Adult Chest Congestion; Tussin Adult chest congestion; Tussin Adults Non Drowsy; Tussin CF; Tussin CF Adult; Tussin CF Adult Cough and Cold; Tussin CF Adult Maximum Strength; Tussin CF Adult Multi Symptom Cold; Tussin CF Adult Non Drowsy; Tussin CF Cough and Cold; Tussin CF Dextromethorphan HBr, Guaifenesin, Phenylephrine HCL; Tussin CF Max; Tussin CF Maximum Strength; Tussin CF Multi Symptom Cold Adult; Tussin CF Multi-Symptom Cold; Tussin CF Non Drowsy; Tussin CF Non Drowsy Multi Symptom; Tussin Chest; Tussin Chest Congestion; Tussin Chest Congestion Adult Non Drowsy; Tussin Chest Congestion Non Drowsy; Tussin Cough Adult Maximum Strength; Tussin Cough DM Adult; Tussin Cough DM Adult Sugar Free; Tussin Cough Expectorant Cough Supressant DM; Tussin Cough Medicine DM Antitussive Expectorant Decongestant; Tussin Cough Medicine Gf Expectorant; Tussin Cough and Chest Congestion DM; Tussin Cough and Chest Congestion DM Adult; Tussin Cough and Chest Congestion DM Sugar Free; Tussin Cough and Chest Congestion DM maximum strength; Tussin DM; Tussin DM Adult; Tussin DM Adult cough and chest congestion; Tussin DM Adults; Tussin DM COUGH SUPPRESSANT/EXPECTORANT; Tussin DM Cough and Chest Congestion; Tussin DM Cough and Chest Congestion Adult; Tussin DM Cough and Chest Congestion Non Drowsy; Tussin DM Cough and Chest Congestion sugar-free ReadyInCase; Tussin DM Cough and Chest Non Drowsy; Tussin DM Max Adult Cough Plus Chest Congestion; Tussin DM Max Adult Cough and Chest Congestion; Tussin DM Max Cough and Chest Congestion; Tussin DM Max non drowsy; Tussin DM Sugar Free; Tussin DM Sugar Free Non Drowsy; Tussin DM adult cough and chest congestion; Tussin DMMaximum Strength; Tussin EXPECTORANT; Tussin Expectorant for Adults; Tussin Maximum Strength; Tussin Mucus Plus Chest Congestion; Tussin Mucus and Chest Congestion; Tussin Mucus and Chest Congestion Adult; Tussin Multi Symptom; Tussin Multi Symptom Cold CF; Tussin Multi Symptom Cold CF Adult; Tussin Non Drowsy; Tussin Original; Tussin Peak Cold sugar-free COUGH PLUS CHEST CONGESTION DM; Tussin Sugar Free; Tussin Sugar Free Cough; Tussin adult mucus and chest congestion; Tussin mucus plus Chest Congestion; Tusslin; Tusslin Pediatric; Tusslin TR; Tussnex FM Cold and Sinus; Tussnex FM Cold, Flu and Sore Throat; Tussnex FM Severe cough and congestion; Tylenol Cold Plus Flu Severe; Tylenol Cold Plus Flu Severe Day/night; Tylenol Cold Plus Head Congestion Severe; Tylenol Cold plus Flu Severe and Tylenol Cold Max; Tylenol Complete Cold, Cough & Flu Plus Mucus Relief; Tylenol Sinus Plus Mucous Relief; Tylenol Sinus Severe; Ultra Strength Neocitran Flu Day With Mucus Relief; Ultra Tuss; Ultra Tuss DM; Ultra Tuss Safe; Up and Up Adult Cough Formula DM Max; Up and Up Adult Cough and Cold; Up and Up Childrens Mucus Relief; Up and Up Childrens Mucus Relief and Cough; Up and Up DM Max Cough Plus Chest Congestion; Up and Up Daytime Severe Cold Nighttime Cold and Flu; Up and Up Fast Mucus Relief Severe Cold; Up and Up Mucus Relief; Up and Up Mucus Relief Cold Flu and Sore Throat; Up and Up Mucus Relief Cold and Sinus; Up and Up Mucus Relief DM; Up and Up Mucus Relief Severe Congestion and Cold; Up and Up Tussin Multi Symptom Cold Maximum Strength; Up and Up adult cough formula DM Non drowsy; Up and Up maximum Strength fast mucus relief Severe Congestion and Cough; Up and Up mucus relief; Up and Up mucus relief cold, flu and sore throat; Up and Up mucus relief severe congestion and cough; Up and Up severe cold and flu; Up and Up severe cold and flu daytime; VanaTab DM; Vanacof DM; Vasofrinic Plus Sirop; Vasopro Ephedrine; Vicks Chest Congestion Relief; Vicks Cough Syrup New Improved; Vicks Custom Care Chest Congestion/cough; Vicks DayQuil Cough; Vicks DayQuil Mucus Control DM; Vicks DayQuil Severe Cold and Flu; Vicks DayQuil and Vicks NyQuil Severe Cold and Flu; Vicks Dayquil Complete Cold & Flu Caplets; Vicks Dayquil Complete Cold & Flu Liquid; Vicks Dayquil Cough Cough & Congestion; Vicks Dayquil Mucus Control; Vicks Formula 44 Cough and Chest Congestion; Vicks Pediatric Formula 44e Liq; Virtussin A/C; Virtussin AC; Virtussin DAC; Viva Cold & Flu All In One Relief Caplets; Wal Tussin; Wal Tussin Adult Chest Congestion; Wal Tussin Adult Cough and Cold; Wal Tussin CF Cough and Cold; Wal Tussin CF Max; Wal Tussin CF Max Multi Symptom Cough Cold and Flu; Wal Tussin Cough and Chest Congestion; Wal Tussin DM; Wal Tussin DM Adult Cough and Chest Congestion; Wal Tussin DM Max; Wal Tussin DM Max Cough and Chest Congestion; Wal-Phed PE Multi Symptom; Wal-Phed PE Non-Drying Sinus; Wal-Phed PE Pressure plus Pain plus Cold Daytime, Nighttime, Multi-Symptom; WalTussin DM Max; Walgreens Severe Cold Multi-Symptom For Adults; Walgreens Severe Warming Cold and Flu For Adults; Xpecto soothing relief; Z-tuss E; Zicam; Zicam Multi-symptom Cold & Flu Daytime; Zodryl DEC 25; Zodryl DEC 30; Zodryl DEC 40; Zodryl DEC 50; Zodryl DEC 60; Zodryl DEC 80; Zyncof; cold and cough sinus relief PE NON-DROWSY; healthy accents mucus relief D; mucus relief DM; sunmark Mucus er; topcare tussin CF; tussin cough and chest congestion DM; tussin severe multi symptom cough cold plus flu CF MAX

>  <SECONDARY_ACCESSION_NUMBERS>  (1) 
APRD01005

>  <SMILES>  (1) 
COC1=CC=CC=C1OCC(O)CO

>  <SYNONYMS>  (1) 
Glyceryl guaiacolate; guaiphenesin

$$$$
