 
     RDKit          2D

 61 63  0  0  0  0  0  0  0  0999 V2000
   20.7461   -9.1719    0.0000 C   0  0  0  0  0  0  0  0  0  0  0  0
   20.7461  -10.0150    0.0000 C   0  0  0  0  0  0  0  0  0  0  0  0
   21.4544   -8.7537    0.0000 C   0  0  0  0  0  0  0  0  0  0  0  0
   19.9722   -8.9161    0.0000 N   0  0  0  0  0  0  0  0  0  0  0  0
   21.4544  -10.4191    0.0000 N   0  0  0  0  0  0  0  0  0  0  0  0
   19.9722  -10.2705    0.0000 N   0  0  0  0  0  0  0  0  0  0  0  0
   22.1764   -9.1890    0.0000 N   0  0  0  0  0  0  0  0  0  0  0  0
   21.4544   -7.9383    0.0000 O   0  0  0  0  0  0  0  0  0  0  0  0
   19.4919   -9.6003    0.0000 C   0  0  0  0  0  0  0  0  0  0  0  0
   22.1764   -9.9838    0.0000 C   0  0  0  0  0  0  0  0  0  0  0  0
   21.4544  -11.2656    0.0000 C   0  0  0  0  0  0  0  0  0  0  0  0
   22.9158   -8.7883    0.0000 C   0  0  0  0  0  0  0  0  0  0  0  0
   18.6627   -9.6037    0.0000 Cl  0  0  0  0  0  0  0  0  0  0  0  0
   22.9158  -10.3984    0.0000 O   0  0  0  0  0  0  0  0  0  0  0  0
   14.3451   -9.7527    0.0000 C   0  0  0  0  0  0  0  0  0  0  0  0
   13.6299  -10.1707    0.0000 C   0  0  0  0  0  0  0  0  0  0  0  0
   15.0637  -10.1707    0.0000 C   0  0  0  0  0  0  0  0  0  0  0  0
   14.3485   -8.9270    0.0000 O   0  0  0  0  0  0  0  0  0  0  0  0
   13.6299  -10.9931    0.0000 C   0  0  0  0  0  0  0  0  0  0  0  0
   12.9147   -9.7527    0.0000 C   0  0  0  0  0  0  0  0  0  0  0  0
   15.0604  -10.9931    0.0000 C   0  0  0  0  0  0  0  0  0  0  0  0
   15.7756   -9.7527    0.0000 C   0  0  0  0  0  0  0  0  0  0  0  0
   15.0637   -8.5124    0.0000 C   0  0  0  0  0  0  0  0  0  0  0  0
   12.9147  -11.4043    0.0000 C   0  0  0  0  0  0  0  0  0  0  0  0
   12.1995  -10.1707    0.0000 C   0  0  0  0  0  0  0  0  0  0  0  0
   15.7756  -11.4043    0.0000 C   0  0  0  0  0  0  0  0  0  0  0  0
   16.4907  -10.1707    0.0000 C   0  0  0  0  0  0  0  0  0  0  0  0
   12.1995  -10.9931    0.0000 C   0  0  0  0  0  0  0  0  0  0  0  0
   16.4872  -10.9931    0.0000 C   0  0  0  0  0  0  0  0  0  0  0  0
   15.7742   -8.9218    0.0000 C   0  0  0  0  0  0  0  0  0  0  0  0
   16.4713   -8.5185    0.0000 N   0  0  0  0  0  0  0  0  0  0  0  0
   17.1779   -8.9258    0.0000 C   0  0  0  0  0  0  0  0  0  0  0  0
   16.4707   -7.6916    0.0000 C   0  0  0  0  0  0  0  0  0  0  0  0
    0.0000    0.0000    0.0000 H   0  0  0  0  0  0  0  0  0  0  0  0
    0.0000    0.0000    0.0000 H   0  0  0  0  0  0  0  0  0  0  0  0
    0.0000    0.0000    0.0000 H   0  0  0  0  0  0  0  0  0  0  0  0
    0.0000    0.0000    0.0000 H   0  0  0  0  0  0  0  0  0  0  0  0
    0.0000    0.0000    0.0000 H   0  0  0  0  0  0  0  0  0  0  0  0
    0.0000    0.0000    0.0000 H   0  0  0  0  0  0  0  0  0  0  0  0
    0.0000    0.0000    0.0000 H   0  0  0  0  0  0  0  0  0  0  0  0
    0.0000    0.0000    0.0000 H   0  0  0  0  0  0  0  0  0  0  0  0
    0.0000    0.0000    0.0000 H   0  0  0  0  0  0  0  0  0  0  0  0
    0.0000    0.0000    0.0000 H   0  0  0  0  0  0  0  0  0  0  0  0
    0.0000    0.0000    0.0000 H   0  0  0  0  0  0  0  0  0  0  0  0
    0.0000    0.0000    0.0000 H   0  0  0  0  0  0  0  0  0  0  0  0
    0.0000    0.0000    0.0000 H   0  0  0  0  0  0  0  0  0  0  0  0
    0.0000    0.0000    0.0000 H   0  0  0  0  0  0  0  0  0  0  0  0
    0.0000    0.0000    0.0000 H   0  0  0  0  0  0  0  0  0  0  0  0
    0.0000    0.0000    0.0000 H   0  0  0  0  0  0  0  0  0  0  0  0
    0.0000    0.0000    0.0000 H   0  0  0  0  0  0  0  0  0  0  0  0
    0.0000    0.0000    0.0000 H   0  0  0  0  0  0  0  0  0  0  0  0
    0.0000    0.0000    0.0000 H   0  0  0  0  0  0  0  0  0  0  0  0
    0.0000    0.0000    0.0000 H   0  0  0  0  0  0  0  0  0  0  0  0
    0.0000    0.0000    0.0000 H   0  0  0  0  0  0  0  0  0  0  0  0
    0.0000    0.0000    0.0000 H   0  0  0  0  0  0  0  0  0  0  0  0
    0.0000    0.0000    0.0000 H   0  0  0  0  0  0  0  0  0  0  0  0
    0.0000    0.0000    0.0000 H   0  0  0  0  0  0  0  0  0  0  0  0
    0.0000    0.0000    0.0000 H   0  0  0  0  0  0  0  0  0  0  0  0
    0.0000    0.0000    0.0000 H   0  0  0  0  0  0  0  0  0  0  0  0
    0.0000    0.0000    0.0000 H   0  0  0  0  0  0  0  0  0  0  0  0
    0.0000    0.0000    0.0000 H   0  0  0  0  0  0  0  0  0  0  0  0
  1  2  2  0
  1  3  1  0
  1  4  1  0
  2  5  1  0
  2  6  1  0
  3  7  1  0
  3  8  2  0
  4  9  1  0
  5 10  1  0
  5 11  1  0
  7 12  1  0
  9 13  1  0
 10 14  2  0
  6  9  2  0
  7 10  1  0
 15 16  1  0
 15 17  1  0
 15 18  1  0
 16 19  2  0
 16 20  1  0
 17 21  2  0
 17 22  1  0
 18 23  1  0
 19 24  1  0
 20 25  2  0
 21 26  1  0
 22 27  2  0
 24 28  2  0
 26 29  2  0
 25 28  1  0
 27 29  1  0
 23 30  1  0
 30 31  1  0
 31 32  1  0
 31 33  1  0
 11 34  1  0
 11 35  1  0
 11 36  1  0
 12 37  1  0
 12 38  1  0
 12 39  1  0
 15 40  1  0
 19 41  1  0
 20 42  1  0
 21 43  1  0
 22 44  1  0
 23 45  1  0
 23 46  1  0
 24 47  1  0
 25 48  1  0
 26 49  1  0
 27 50  1  0
 28 51  1  0
 29 52  1  0
 30 53  1  0
 30 54  1  0
 31 55  1  0
 32 56  1  0
 32 57  1  0
 32 58  1  0
 33 59  1  0
 33 60  1  0
 33 61  1  0
M  CHG  2   4  -1  31   1
M  END
>  <ALOGPS_LOGP>  (1) 
2.67

>  <ALOGPS_LOGS>  (1) 
-5.57

>  <ALOGPS_SOLUBILITY>  (1) 
1.25e-03 g/l

>  <DATABASE_ID>  (1) 
DB00985

>  <DATABASE_NAME>  (1) 
drugbank

>  <DRUGBANK_ID>  (1) 
DB00985

>  <DRUG_GROUPS>  (1) 
approved

>  <EXACT_MASS>  (1) 
469.188067494

>  <FORMULA>  (1) 
C24H28ClN5O3

>  <GENERIC_NAME>  (1) 
Dimenhydrinate

>  <INCHI_IDENTIFIER>  (1) 
InChI=1S/C17H21NO.C7H7ClN4O2/c1-18(2)13-14-19-17(15-9-5-3-6-10-15)16-11-7-4-8-12-16;1-11-4-3(9-6(8)10-4)5(13)12(2)7(11)14/h3-12,17H,13-14H2,1-2H3;1-2H3,(H,9,10,13)

>  <INCHI_KEY>  (1) 
DKHVTDUUNTVKOW-UHFFFAOYSA-N

>  <INTERNATIONAL_BRANDS>  (1) 
Gravol; Vertirosan; Vomex A; Xamamina

>  <JCHEM_ACCEPTOR_COUNT>  (1) 
1

>  <JCHEM_AVERAGE_POLARIZABILITY>  (1) 
30.276146095035905

>  <JCHEM_BIOAVAILABILITY>  (1) 
1

>  <JCHEM_DONOR_COUNT>  (1) 
1

>  <JCHEM_FORMAL_CHARGE>  (1) 
0

>  <JCHEM_GHOSE_FILTER>  (1) 
1

>  <JCHEM_IUPAC>  (1) 
8-chloro-1,3-dimethyl-2,6-dioxo-2,3,6,7-tetrahydro-1H-purin-7-ide; [2-(diphenylmethoxy)ethyl]dimethylazanium

>  <JCHEM_LOGP>  (1) 
3.651907262

>  <JCHEM_MDDR_LIKE_RULE>  (1) 
1

>  <JCHEM_NUMBER_OF_RINGS>  (1) 
4

>  <JCHEM_PHYSIOLOGICAL_CHARGE>  (1) 
1

>  <JCHEM_PKA_STRONGEST_BASIC>  (1) 
8.867087128683956

>  <JCHEM_POLAR_SURFACE_AREA>  (1) 
13.670000000000002

>  <JCHEM_REFRACTIVITY>  (1) 
90.94390000000001

>  <JCHEM_ROTATABLE_BOND_COUNT>  (1) 
6

>  <JCHEM_RULE_OF_FIVE>  (1) 
1

>  <JCHEM_TRADITIONAL_IUPAC>  (1) 
8-chlorotheophylline(1-); [2-(diphenylmethoxy)ethyl]dimethylazanium

>  <JCHEM_VEBER_RULE>  (1) 
1

>  <MOLECULAR_WEIGHT>  (1) 
469.964

>  <PRODUCTS>  (1) 
Airmit Ace; Anti-nauseant; Anti-nauseant Tablet; Apo Dimenhydrinate Tab 50mg; Children's Motion Sickness Liq; Children's Motion Sickness Liquid; Dimenhydrinate; Dimenhydrinate 50mg; Dimenhydrinate Capsules; Dimenhydrinate Inj 10mg; Dimenhydrinate Inj 10mg/ml; Dimenhydrinate Inj 50mg USP; Dimenhydrinate Injection 50mg/ml; Dimenhydrinate Injection USP; Dimenhydrinate Injection USP 250mg/5ml (50mg/ml); Dimenhydrinate Injection USP With Preservative; Dimenhydrinate Injection, USP; Dimenhydrinate Liquid for Children; Dimenhydrinate Tab 50mg; Dimenhydrinate Tab 50mg USP; Dimenhydrinate Tablet USP 50mg; Dimenhydrinate Tablets; Dinate; Dramamine; Dramamine Orange; Dramamine Original Formula; Dramamine for Kids; Driminate; Gravergol Capsules; Gravol Capsules Long Acting 75mg; Gravol Comfort Shaped Suppositories; Gravol Easy To Swallow Tablets; Gravol Filmkote Tab 15mg; Gravol IV Ampoules; Gravol Im; Gravol Immediate Release & Long Acting Caplets; Gravol Junior Suppositories 50mg; Gravol Kids Comfort Shaped Suppositories; Gravol Kids Liquid; Gravol Kids Quick Dissolve Chewable; Gravol Long Acting Caplet; Gravol Quick Dissolve Chewable; Gravol Tab 25mg; Gravol Tastefree Liquid Gel Capsules; Jamp-dimenhydrinate 50 Mg Tablets; Motion Sickness; Motion Sickness Children's Chewable Tablets; Motion Sickness Original Formula; Motion Sickness Original formula; Motion Sickness Relief; Motion Sickness Relief Liquid Gels; Motion Sickness Relief Original Formula; Motion Sickness Tab 50mg; Motion Sickness Tablets 50mg; Nauseatol; Nausex Tab 50mg; Orb-dimenhydrinate Tablets USP; Original Formula Motion Sickness Relief; PMS-dimenhydrinate Syr 3mg/ml; PMS-dimenhydrinate Tab 50mg; Pac-Kit Motion Sickness; PhysiciansCare Dimenhydrinate Motion Sickness Relief; Riva-dimenhydrinate Tablets; Sandoz Dimenhydrinate; Sicknol; Travamine Sup 50mg; Travamine Tab 50mg; Travel Ease; Travel On Tab 50mg; Travel Sickness; Travel Tabs; Travel Tabs 50 mg; Travelmate Tab 50mg; Travelmate-dimenhydrinate Tablets 50mg; Traveltabs 50mg; Wal-Dram

>  <SECONDARY_ACCESSION_NUMBERS>  (1) 
APRD00924

>  <SMILES>  (1) 
CN1C2=C([N-]C(Cl)=N2)C(=O)N(C)C1=O.C[NH+](C)CCOC(C1=CC=CC=C1)C1=CC=CC=C1

$$$$
