950
     RDKit          2D

 76 79  0  0  1  0  0  0  0  0999 V2000
    3.4115    3.7621    0.0000 O   0  0  0  0  0  0  0  0  0  0  0  0
    2.0930   -0.7755    0.0000 O   0  0  0  0  0  0  0  0  0  0  0  0
    2.0930   -5.7256    0.0000 O   0  0  0  0  0  0  0  0  0  0  0  0
    3.5220   -5.7256    0.0000 O   0  0  0  0  0  0  0  0  0  0  0  0
    4.2365    1.2870    0.0000 N   0  0  0  0  0  0  0  0  0  0  0  0
    4.2365    2.9371    0.0000 C   0  0  0  0  0  0  0  0  0  0  0  0
    3.5220    2.5246    0.0000 C   0  0  0  0  0  0  0  0  0  0  0  0
    4.9509    2.5246    0.0000 C   0  0  0  0  0  0  0  0  0  0  0  0
    4.2365    3.7621    0.0000 C   0  0  0  0  0  0  0  0  0  0  0  0
    3.5220    1.6995    0.0000 C   0  0  0  0  0  0  0  0  0  0  0  0
    4.9509    1.6995    0.0000 C   0  0  0  0  0  0  0  0  0  0  0  0
    4.2365    0.4620    0.0000 C   0  0  0  0  0  0  0  0  0  0  0  0
    4.2365    4.5871    0.0000 C   0  0  0  0  0  0  0  0  0  0  0  0
    5.0615    3.7621    0.0000 C   0  0  0  0  0  0  0  0  0  0  0  0
    3.5220    0.0495    0.0000 C   0  0  0  0  0  0  0  0  0  0  0  0
    3.5220   -0.7755    0.0000 C   0  0  0  0  0  0  0  0  0  0  0  0
    3.5220    4.9996    0.0000 C   0  0  0  0  0  0  0  0  0  0  0  0
    5.4740    4.4765    0.0000 C   0  0  0  0  0  0  0  0  0  0  0  0
    4.9509    4.9996    0.0000 C   0  0  0  0  0  0  0  0  0  0  0  0
    5.4740    3.0476    0.0000 C   0  0  0  0  0  0  0  0  0  0  0  0
    2.8075   -1.1880    0.0000 C   0  0  0  0  0  0  0  0  0  0  0  0
    3.5220    5.8246    0.0000 C   0  0  0  0  0  0  0  0  0  0  0  0
    6.2990    4.4765    0.0000 C   0  0  0  0  0  0  0  0  0  0  0  0
    4.9509    5.8246    0.0000 C   0  0  0  0  0  0  0  0  0  0  0  0
    6.2990    3.0476    0.0000 C   0  0  0  0  0  0  0  0  0  0  0  0
    2.8075   -2.0130    0.0000 C   0  0  0  0  0  0  0  0  0  0  0  0
    4.2365    6.2371    0.0000 C   0  0  0  0  0  0  0  0  0  0  0  0
    6.7115    3.7621    0.0000 C   0  0  0  0  0  0  0  0  0  0  0  0
    3.5220   -2.4256    0.0000 C   0  0  0  0  0  0  0  0  0  0  0  0
    2.0930   -2.4256    0.0000 C   0  0  0  0  0  0  0  0  0  0  0  0
    2.8075   -4.4881    0.0000 C   0  0  0  0  0  0  0  0  0  0  0  0
    2.8075   -3.6631    0.0000 C   0  0  0  0  0  0  0  0  0  0  0  0
    3.5220   -3.2506    0.0000 C   0  0  0  0  0  0  0  0  0  0  0  0
    2.0930   -3.2506    0.0000 C   0  0  0  0  0  0  0  0  0  0  0  0
    1.9825   -4.4881    0.0000 C   0  0  0  0  0  0  0  0  0  0  0  0
    3.6326   -4.4881    0.0000 C   0  0  0  0  0  0  0  0  0  0  0  0
    2.8075   -5.3131    0.0000 C   0  0  0  0  0  0  0  0  0  0  0  0
    0.0000    0.0000    0.0000 H   0  0  0  0  0  0  0  0  0  0  0  0
    0.0000    0.0000    0.0000 H   0  0  0  0  0  0  0  0  0  0  0  0
    0.0000    0.0000    0.0000 H   0  0  0  0  0  0  0  0  0  0  0  0
    0.0000    0.0000    0.0000 H   0  0  0  0  0  0  0  0  0  0  0  0
    0.0000    0.0000    0.0000 H   0  0  0  0  0  0  0  0  0  0  0  0
    0.0000    0.0000    0.0000 H   0  0  0  0  0  0  0  0  0  0  0  0
    0.0000    0.0000    0.0000 H   0  0  0  0  0  0  0  0  0  0  0  0
    0.0000    0.0000    0.0000 H   0  0  0  0  0  0  0  0  0  0  0  0
    0.0000    0.0000    0.0000 H   0  0  0  0  0  0  0  0  0  0  0  0
    0.0000    0.0000    0.0000 H   0  0  0  0  0  0  0  0  0  0  0  0
    0.0000    0.0000    0.0000 H   0  0  0  0  0  0  0  0  0  0  0  0
    0.0000    0.0000    0.0000 H   0  0  0  0  0  0  0  0  0  0  0  0
    0.0000    0.0000    0.0000 H   0  0  0  0  0  0  0  0  0  0  0  0
    0.0000    0.0000    0.0000 H   0  0  0  0  0  0  0  0  0  0  0  0
    0.0000    0.0000    0.0000 H   0  0  0  0  0  0  0  0  0  0  0  0
    0.0000    0.0000    0.0000 H   0  0  0  0  0  0  0  0  0  0  0  0
    0.0000    0.0000    0.0000 H   0  0  0  0  0  0  0  0  0  0  0  0
    0.0000    0.0000    0.0000 H   0  0  0  0  0  0  0  0  0  0  0  0
    0.0000    0.0000    0.0000 H   0  0  0  0  0  0  0  0  0  0  0  0
    0.0000    0.0000    0.0000 H   0  0  0  0  0  0  0  0  0  0  0  0
    0.0000    0.0000    0.0000 H   0  0  0  0  0  0  0  0  0  0  0  0
    0.0000    0.0000    0.0000 H   0  0  0  0  0  0  0  0  0  0  0  0
    0.0000    0.0000    0.0000 H   0  0  0  0  0  0  0  0  0  0  0  0
    0.0000    0.0000    0.0000 H   0  0  0  0  0  0  0  0  0  0  0  0
    0.0000    0.0000    0.0000 H   0  0  0  0  0  0  0  0  0  0  0  0
    0.0000    0.0000    0.0000 H   0  0  0  0  0  0  0  0  0  0  0  0
    0.0000    0.0000    0.0000 H   0  0  0  0  0  0  0  0  0  0  0  0
    0.0000    0.0000    0.0000 H   0  0  0  0  0  0  0  0  0  0  0  0
    0.0000    0.0000    0.0000 H   0  0  0  0  0  0  0  0  0  0  0  0
    0.0000    0.0000    0.0000 H   0  0  0  0  0  0  0  0  0  0  0  0
    0.0000    0.0000    0.0000 H   0  0  0  0  0  0  0  0  0  0  0  0
    0.0000    0.0000    0.0000 H   0  0  0  0  0  0  0  0  0  0  0  0
    0.0000    0.0000    0.0000 H   0  0  0  0  0  0  0  0  0  0  0  0
    0.0000    0.0000    0.0000 H   0  0  0  0  0  0  0  0  0  0  0  0
    0.0000    0.0000    0.0000 H   0  0  0  0  0  0  0  0  0  0  0  0
    0.0000    0.0000    0.0000 H   0  0  0  0  0  0  0  0  0  0  0  0
    0.0000    0.0000    0.0000 H   0  0  0  0  0  0  0  0  0  0  0  0
    0.0000    0.0000    0.0000 H   0  0  0  0  0  0  0  0  0  0  0  0
    0.0000    0.0000    0.0000 H   0  0  0  0  0  0  0  0  0  0  0  0
  1  9  1  0
  2 21  1  0
  3 37  1  0
  4 37  2  0
  5 10  1  0
  5 11  1  0
  5 12  1  0
  6  7  1  0
  6  8  1  0
  6  9  1  0
  7 10  1  0
  8 11  1  0
  9 13  1  0
  9 14  1  0
 12 15  1  0
 13 17  2  0
 13 19  1  0
 14 18  2  0
 14 20  1  0
 15 16  1  0
 16 21  1  0
 17 22  1  0
 18 23  1  0
 19 24  2  0
 20 25  2  0
 21 26  1  0
 22 27  2  0
 23 28  2  0
 24 27  1  0
 25 28  1  0
 26 29  2  0
 26 30  1  0
 29 33  1  0
 30 34  2  0
 31 32  1  0
 31 35  1  0
 31 36  1  0
 31 37  1  0
 32 33  2  0
 32 34  1  0
  1 38  1  0
  2 39  1  0
  3 40  1  0
  6 41  1  0
  7 42  1  0
  7 43  1  0
  8 44  1  0
  8 45  1  0
 10 46  1  0
 10 47  1  0
 11 48  1  0
 11 49  1  0
 12 50  1  0
 12 51  1  0
 15 52  1  0
 15 53  1  0
 16 54  1  0
 16 55  1  0
 17 56  1  0
 18 57  1  0
 19 58  1  0
 20 59  1  0
 21 60  1  0
 22 61  1  0
 23 62  1  0
 24 63  1  0
 25 64  1  0
 27 65  1  0
 28 66  1  0
 29 67  1  0
 30 68  1  0
 33 69  1  0
 34 70  1  0
 35 71  1  0
 35 72  1  0
 35 73  1  0
 36 74  1  0
 36 75  1  0
 36 76  1  0
M  END
>  <ALOGPS_LOGP>  (1) 
5.02

>  <ALOGPS_LOGS>  (1) 
-5.28

>  <ALOGPS_SOLUBILITY>  (1) 
2.66e-03 g/l

>  <DATABASE_ID>  (1) 
DB00950

>  <DATABASE_NAME>  (1) 
drugbank

>  <DRUGBANK_ID>  (1) 
DB00950

>  <DRUG_GROUPS>  (1) 
approved

>  <EXACT_MASS>  (1) 
501.287908741

>  <FORMULA>  (1) 
C32H39NO4

>  <GENERIC_NAME>  (1) 
Fexofenadine

>  <INCHI_IDENTIFIER>  (1) 
InChI=1S/C32H39NO4/c1-31(2,30(35)36)25-17-15-24(16-18-25)29(34)14-9-21-33-22-19-28(20-23-33)32(37,26-10-5-3-6-11-26)27-12-7-4-8-13-27/h3-8,10-13,15-18,28-29,34,37H,9,14,19-23H2,1-2H3,(H,35,36)

>  <INCHI_KEY>  (1) 
RWTNPBWLLIMQHL-UHFFFAOYSA-N

>  <INTERNATIONAL_BRANDS>  (1) 
Fastofen; Fexidine; Telfast; Vifas

>  <JCHEM_ACCEPTOR_COUNT>  (1) 
5

>  <JCHEM_AVERAGE_POLARIZABILITY>  (1) 
57.417120065594055

>  <JCHEM_BIOAVAILABILITY>  (1) 
1

>  <JCHEM_DONOR_COUNT>  (1) 
3

>  <JCHEM_FORMAL_CHARGE>  (1) 
0

>  <JCHEM_GHOSE_FILTER>  (1) 
0

>  <JCHEM_IUPAC>  (1) 
2-(4-{1-hydroxy-4-[4-(hydroxydiphenylmethyl)piperidin-1-yl]butyl}phenyl)-2-methylpropanoic acid

>  <JCHEM_LOGP>  (1) 
2.9385009869991623

>  <JCHEM_MDDR_LIKE_RULE>  (1) 
1

>  <JCHEM_NUMBER_OF_RINGS>  (1) 
4

>  <JCHEM_PHYSIOLOGICAL_CHARGE>  (1) 
0

>  <JCHEM_PKA>  (1) 
13.19564234596055

>  <JCHEM_PKA_STRONGEST_ACIDIC>  (1) 
4.040438214053872

>  <JCHEM_PKA_STRONGEST_BASIC>  (1) 
9.010501448307204

>  <JCHEM_POLAR_SURFACE_AREA>  (1) 
80.99999999999999

>  <JCHEM_REFRACTIVITY>  (1) 
147.98460000000009

>  <JCHEM_ROTATABLE_BOND_COUNT>  (1) 
10

>  <JCHEM_RULE_OF_FIVE>  (1) 
0

>  <JCHEM_TRADITIONAL_IUPAC>  (1) 
fexofenadine

>  <JCHEM_VEBER_RULE>  (1) 
0

>  <MOLECULAR_WEIGHT>  (1) 
501.6564

>  <PRODUCTS>  (1) 
24 Hour Allergy; 7 Select Allergy Relief; Allegra; Allegra 12 Hour; Allegra 24 Hour (120mg); Allegra Allergy; Allegra D 12 Hour Allergy and Congestion; Allegra D-12 Hour; Allegra--D 24 Hour; Allegra-D; Allegra-D 24 Hour; Allegra-D Allergy and Congestion; Aller Ease; Allergy 24-HR; Allergy Relief; Allergy relief; Berkley and Jensen Allergy Relief; Care One Aller Ease; CareOne Allergy Relief; Childrens Allegra Allergy; Childrens Aller-Ease Fexofenadine Hydrochloride; Childrens Allergy; Childrens Allergy Fexofenadine Hydrochloride; Childrens Allergy Relief; Childrens Fexofenadine Hydrochloride Allergy; Childrens Fexofenadine Hydrochloride HIVES; Childrens Wal-Fex; Dg Health Aller Ease; Equaline Aller Ease; Equate Allergy Relief; Exchange Select Aller Ease; Exchange Select Allergy Relief; FEXOFENADINE HYDROCHLORIDE and PSEUDOEPHEDRINE HYDROCHLORIDE; Fexo Fenadine; Fexofenadine; Fexofenadine HCl; Fexofenadine HCl and Pseudoephedrine HCI; Fexofenadine HCl and Pseudoephedrine HCl; Fexofenadine Hydrochloride; Fexofenadine Hydrochloride 180; Fexofenadine Hydrochloride and Pseudoephedrine Hydrochloride; Fexofenadine hydrochloride; Fexofenodine Hydrochloride; Good Neighbor Pharmacy Allergy Relief; Good Sense Aller Ease; Harris Teeter Allergy Relief; Health Mart Fexofenadine Hydrochloride; Health Mart fexofenadine hydrochloride; Healthy Accents Aller Ease 24 Hour; Healthy Accents Allergy Relief; Kirkland Signature Aller Fex; Leader Aller Ease; Leader Allergy Relief; Members Mark Fexofenadine; Mucinex Allergy; Preferred Plus Aller Ease; Preferred Plus Allergy Relief; Rugby Fexofenadine Hydrochloride; ShopRite Aller Ease; Signature Care Allergy Relief; Smart Sense Allergy Relief; Sound Body Allergy Relief; Sunmark Fexofenadine Hydrochloride; Sunmark fexofenadine hydrochloride; Topcare Allergy Relief; Topcare Fexofenadine Hydrochloride; Topcare fexofenadine hydrochloride; Up and Up Allergy Relief; Wal Fex; Wal Fex 24 Hour Allergy; Wal Fex Allergy; Wal fex Allergy; Wal-Fex

>  <SALTS>  (1) 
Fexofenadine hydrochloride

>  <SECONDARY_ACCESSION_NUMBERS>  (1) 
APRD00349

>  <SMILES>  (1) 
CC(C)(C(O)=O)C1=CC=C(C=C1)C(O)CCCN1CCC(CC1)C(O)(C1=CC=CC=C1)C1=CC=CC=C1

>  <SYNONYMS>  (1) 
Carboxyterfenadine; Terfenadine acid metabolite; Terfenadine carboxylate; Terfenadine-COOH

$$$$
