872
     RDKit          2D

 64 69  0  0  0  0  0  0  0  0999 V2000
    2.4353   -0.6931    0.0000 O   0  0  0  0  0  0  0  0  0  0  0  0
    3.9363    2.7769    0.0000 O   0  0  0  0  0  0  0  0  0  0  0  0
    3.6160   -1.4980    0.0000 N   0  0  0  0  0  0  0  0  0  0  0  0
    5.3370   -3.5416    0.0000 N   0  0  0  0  0  0  0  0  0  0  0  0
    4.1407   -4.1177    0.0000 N   0  0  0  0  0  0  0  0  0  0  0  0
    5.1170    1.9719    0.0000 N   0  0  0  0  0  0  0  0  0  0  0  0
    4.9554   -2.1430    0.0000 C   0  0  0  0  0  0  0  0  0  0  0  0
    4.4410   -1.4980    0.0000 C   0  0  0  0  0  0  0  0  0  0  0  0
    4.7718   -2.9473    0.0000 C   0  0  0  0  0  0  0  0  0  0  0  0
    4.0285   -3.3053    0.0000 C   0  0  0  0  0  0  0  0  0  0  0  0
    3.1016   -2.1430    0.0000 C   0  0  0  0  0  0  0  0  0  0  0  0
    3.2852   -2.9473    0.0000 C   0  0  0  0  0  0  0  0  0  0  0  0
    4.9478   -4.2635    0.0000 C   0  0  0  0  0  0  0  0  0  0  0  0
    3.2580   -0.7547    0.0000 C   0  0  0  0  0  0  0  0  0  0  0  0
    2.2844   -1.8771    0.0000 C   0  0  0  0  0  0  0  0  0  0  0  0
    2.6644   -3.5415    0.0000 C   0  0  0  0  0  0  0  0  0  0  0  0
    3.7228   -0.0731    0.0000 C   0  0  0  0  0  0  0  0  0  0  0  0
    1.6500   -2.4567    0.0000 C   0  0  0  0  0  0  0  0  0  0  0  0
    1.8412   -3.2946    0.0000 C   0  0  0  0  0  0  0  0  0  0  0  0
    5.3057   -5.0068    0.0000 C   0  0  0  0  0  0  0  0  0  0  0  0
    3.3649    0.6702    0.0000 C   0  0  0  0  0  0  0  0  0  0  0  0
    4.5454   -0.1347    0.0000 C   0  0  0  0  0  0  0  0  0  0  0  0
    4.6523    1.2902    0.0000 C   0  0  0  0  0  0  0  0  0  0  0  0
    3.8296    1.3519    0.0000 C   0  0  0  0  0  0  0  0  0  0  0  0
    5.0103    0.5470    0.0000 C   0  0  0  0  0  0  0  0  0  0  0  0
    5.2238    3.3969    0.0000 C   0  0  0  0  0  0  0  0  0  0  0  0
    4.8658    4.1401    0.0000 C   0  0  0  0  0  0  0  0  0  0  0  0
    4.7590    2.7152    0.0000 C   0  0  0  0  0  0  0  0  0  0  0  0
    4.0431    4.2018    0.0000 C   0  0  0  0  0  0  0  0  0  0  0  0
    6.0465    3.3352    0.0000 C   0  0  0  0  0  0  0  0  0  0  0  0
    5.3306    4.8218    0.0000 C   0  0  0  0  0  0  0  0  0  0  0  0
    6.5113    4.0169    0.0000 C   0  0  0  0  0  0  0  0  0  0  0  0
    6.1533    4.7601    0.0000 C   0  0  0  0  0  0  0  0  0  0  0  0
    3.5784    3.5201    0.0000 C   0  0  0  0  0  0  0  0  0  0  0  0
    3.6852    4.9451    0.0000 C   0  0  0  0  0  0  0  0  0  0  0  0
    2.7557    3.5818    0.0000 C   0  0  0  0  0  0  0  0  0  0  0  0
    2.8625    5.0068    0.0000 C   0  0  0  0  0  0  0  0  0  0  0  0
    2.3977    4.3251    0.0000 C   0  0  0  0  0  0  0  0  0  0  0  0
    0.0000    0.0000    0.0000 H   0  0  0  0  0  0  0  0  0  0  0  0
    0.0000    0.0000    0.0000 H   0  0  0  0  0  0  0  0  0  0  0  0
    0.0000    0.0000    0.0000 H   0  0  0  0  0  0  0  0  0  0  0  0
    0.0000    0.0000    0.0000 H   0  0  0  0  0  0  0  0  0  0  0  0
    0.0000    0.0000    0.0000 H   0  0  0  0  0  0  0  0  0  0  0  0
    0.0000    0.0000    0.0000 H   0  0  0  0  0  0  0  0  0  0  0  0
    0.0000    0.0000    0.0000 H   0  0  0  0  0  0  0  0  0  0  0  0
    0.0000    0.0000    0.0000 H   0  0  0  0  0  0  0  0  0  0  0  0
    0.0000    0.0000    0.0000 H   0  0  0  0  0  0  0  0  0  0  0  0
    0.0000    0.0000    0.0000 H   0  0  0  0  0  0  0  0  0  0  0  0
    0.0000    0.0000    0.0000 H   0  0  0  0  0  0  0  0  0  0  0  0
    0.0000    0.0000    0.0000 H   0  0  0  0  0  0  0  0  0  0  0  0
    0.0000    0.0000    0.0000 H   0  0  0  0  0  0  0  0  0  0  0  0
    0.0000    0.0000    0.0000 H   0  0  0  0  0  0  0  0  0  0  0  0
    0.0000    0.0000    0.0000 H   0  0  0  0  0  0  0  0  0  0  0  0
    0.0000    0.0000    0.0000 H   0  0  0  0  0  0  0  0  0  0  0  0
    0.0000    0.0000    0.0000 H   0  0  0  0  0  0  0  0  0  0  0  0
    0.0000    0.0000    0.0000 H   0  0  0  0  0  0  0  0  0  0  0  0
    0.0000    0.0000    0.0000 H   0  0  0  0  0  0  0  0  0  0  0  0
    0.0000    0.0000    0.0000 H   0  0  0  0  0  0  0  0  0  0  0  0
    0.0000    0.0000    0.0000 H   0  0  0  0  0  0  0  0  0  0  0  0
    0.0000    0.0000    0.0000 H   0  0  0  0  0  0  0  0  0  0  0  0
    0.0000    0.0000    0.0000 H   0  0  0  0  0  0  0  0  0  0  0  0
    0.0000    0.0000    0.0000 H   0  0  0  0  0  0  0  0  0  0  0  0
    0.0000    0.0000    0.0000 H   0  0  0  0  0  0  0  0  0  0  0  0
    0.0000    0.0000    0.0000 H   0  0  0  0  0  0  0  0  0  0  0  0
  1 14  2  0
  2 28  2  0
  3  8  1  0
  3 11  1  0
  3 14  1  0
  4  9  1  0
  4 13  1  0
  5 10  1  0
  5 13  2  0
  6 23  1  0
  6 28  1  0
  7  8  1  0
  7  9  1  0
  9 10  2  0
 10 12  1  0
 11 12  2  0
 11 15  1  0
 12 16  1  0
 13 20  1  0
 14 17  1  0
 15 18  2  0
 16 19  2  0
 17 21  2  0
 17 22  1  0
 18 19  1  0
 21 24  1  0
 22 25  2  0
 23 24  2  0
 23 25  1  0
 26 27  1  0
 26 28  1  0
 26 30  2  0
 27 29  1  0
 27 31  2  0
 29 34  2  0
 29 35  1  0
 30 32  1  0
 31 33  1  0
 32 33  2  0
 34 36  1  0
 35 37  2  0
 36 38  2  0
 37 38  1  0
  4 39  1  0
  6 40  1  0
  7 41  1  0
  7 42  1  0
  8 43  1  0
  8 44  1  0
 15 45  1  0
 16 46  1  0
 18 47  1  0
 19 48  1  0
 20 49  1  0
 20 50  1  0
 20 51  1  0
 21 52  1  0
 22 53  1  0
 24 54  1  0
 25 55  1  0
 30 56  1  0
 31 57  1  0
 32 58  1  0
 33 59  1  0
 34 60  1  0
 35 61  1  0
 36 62  1  0
 37 63  1  0
 38 64  1  0
M  END
>  <ALOGPS_LOGP>  (1) 
5.23

>  <ALOGPS_LOGS>  (1) 
-5.46

>  <ALOGPS_SOLUBILITY>  (1) 
1.75e-03 g/l

>  <DATABASE_ID>  (1) 
DB00872

>  <DATABASE_NAME>  (1) 
drugbank

>  <DRUGBANK_ID>  (1) 
DB00872

>  <DRUG_GROUPS>  (1) 
approved; investigational

>  <EXACT_MASS>  (1) 
498.205576096

>  <FORMULA>  (1) 
C32H26N4O2

>  <GENERIC_NAME>  (1) 
Conivaptan

>  <INCHI_IDENTIFIER>  (1) 
InChI=1S/C32H26N4O2/c1-21-33-28-19-20-36(29-14-8-7-13-27(29)30(28)34-21)32(38)23-15-17-24(18-16-23)35-31(37)26-12-6-5-11-25(26)22-9-3-2-4-10-22/h2-18H,19-20H2,1H3,(H,33,34)(H,35,37)

>  <INCHI_KEY>  (1) 
IKENVDNFQMCRTR-UHFFFAOYSA-N

>  <INTERNATIONAL_BRANDS>  (1) 
Vaprisol

>  <JCHEM_ACCEPTOR_COUNT>  (1) 
3

>  <JCHEM_AVERAGE_POLARIZABILITY>  (1) 
55.51269500990072

>  <JCHEM_BIOAVAILABILITY>  (1) 
1

>  <JCHEM_DONOR_COUNT>  (1) 
2

>  <JCHEM_FORMAL_CHARGE>  (1) 
0

>  <JCHEM_GHOSE_FILTER>  (1) 
0

>  <JCHEM_IUPAC>  (1) 
N-(4-{4-methyl-3,5,9-triazatricyclo[8.4.0.0²,⁶]tetradeca-1(14),2(6),3,10,12-pentaene-9-carbonyl}phenyl)-2-phenylbenzamide

>  <JCHEM_LOGP>  (1) 
5.437165417333334

>  <JCHEM_MDDR_LIKE_RULE>  (1) 
0

>  <JCHEM_NUMBER_OF_RINGS>  (1) 
6

>  <JCHEM_PHYSIOLOGICAL_CHARGE>  (1) 
0

>  <JCHEM_PKA>  (1) 
13.535827684043433

>  <JCHEM_PKA_STRONGEST_ACIDIC>  (1) 
11.138932895236936

>  <JCHEM_PKA_STRONGEST_BASIC>  (1) 
6.226799208096232

>  <JCHEM_POLAR_SURFACE_AREA>  (1) 
78.09

>  <JCHEM_REFRACTIVITY>  (1) 
150.83429999999996

>  <JCHEM_ROTATABLE_BOND_COUNT>  (1) 
4

>  <JCHEM_RULE_OF_FIVE>  (1) 
0

>  <JCHEM_TRADITIONAL_IUPAC>  (1) 
vaprisol

>  <JCHEM_VEBER_RULE>  (1) 
0

>  <MOLECULAR_WEIGHT>  (1) 
498.5744

>  <PRODUCTS>  (1) 
Vaprisol Dextrose In Plastic Container

>  <SALTS>  (1) 
Conivaptan hydrochloride

>  <SECONDARY_ACCESSION_NUMBERS>  (1) 
APRD01302

>  <SMILES>  (1) 
CC1=NC2=C(CCN(C(=O)C3=CC=C(NC(=O)C4=CC=CC=C4C4=CC=CC=C4)C=C3)C3=CC=CC=C23)N1

$$$$
