 
     RDKit          2D

 57 60  0  0  1  0  0  0  0  0999 V2000
   14.0029  -10.2981    0.0000 C   0  0  0  0  0  0  0  0  0  0  0  0
   13.9889  -11.1212    0.0000 C   0  0  0  0  0  0  0  0  0  0  0  0
   13.2949   -9.8795    0.0000 C   0  0  0  0  0  0  0  0  0  0  0  0
   14.7214   -9.8934    0.0000 C   0  0  0  0  0  0  0  0  0  0  0  0
   13.2774  -11.5258    0.0000 C   0  0  0  0  0  0  0  0  0  0  0  0
   14.6970  -11.5433    0.0000 C   0  0  0  0  0  0  0  0  0  0  0  0
   13.9819  -11.9409    0.0000 O   0  0  0  0  0  0  0  0  0  0  0  0
   12.5729  -10.2841    0.0000 C   0  0  0  0  0  0  0  0  0  0  0  0
   13.2879   -8.8817    0.0000 O   0  0  0  0  0  0  0  0  0  0  0  0
   15.4259  -10.3156    0.0000 C   0  0  0  0  0  0  0  0  0  0  0  0
   14.7319   -9.0703    0.0000 N   0  0  0  0  0  0  0  0  0  0  0  0
   12.5659  -11.1072    0.0000 C   0  0  0  0  0  0  0  0  0  0  0  0
   13.3124  -12.3524    0.0000 O   0  0  0  0  0  0  0  0  0  0  0  0
   15.4154  -11.1421    0.0000 C   0  0  0  0  0  0  0  0  0  0  0  0
   14.6830  -12.3663    0.0000 O   0  0  0  0  0  0  0  0  0  0  0  0
   11.8614   -9.8655    0.0000 C   0  0  0  0  0  0  0  0  0  0  0  0
   16.1514   -9.9144    0.0000 O   0  0  0  0  0  0  0  0  0  0  0  0
   15.4538   -8.6657    0.0000 C   0  0  0  0  0  0  0  0  0  0  0  0
   14.7389   -8.0728    0.0000 C   0  0  0  0  0  0  0  0  0  0  0  0
   11.8544  -11.5188    0.0000 C   0  0  0  0  0  0  0  0  0  0  0  0
   16.1270  -11.5641    0.0000 C   0  0  0  0  0  0  0  0  0  0  0  0
   11.1429  -10.2771    0.0000 C   0  0  0  0  0  0  0  0  0  0  0  0
   11.8649   -8.7910    0.0000 C   0  0  0  0  0  0  0  0  0  0  0  0
   11.1393  -11.1037    0.0000 C   0  0  0  0  0  0  0  0  0  0  0  0
   11.8509  -12.3454    0.0000 O   0  0  0  0  0  0  0  0  0  0  0  0
   16.8454  -11.1630    0.0000 N   0  0  0  0  0  0  0  0  0  0  0  0
   16.1130  -12.3907    0.0000 O   0  0  0  0  0  0  0  0  0  0  0  0
   10.4279   -9.8655    0.0000 C   0  0  0  0  0  0  0  0  0  0  0  0
   10.4279  -11.5154    0.0000 C   0  0  0  0  0  0  0  0  0  0  0  0
    9.7129  -10.2771    0.0000 C   0  0  0  0  0  0  0  0  0  0  0  0
    9.7129  -11.1037    0.0000 C   0  0  0  0  0  0  0  0  0  0  0  0
   10.4313  -12.3419    0.0000 O   0  0  0  0  0  0  0  0  0  0  0  0
   11.1352   -9.4462    0.0000 O   0  0  0  0  0  0  0  0  0  0  0  0
    0.0000    0.0000    0.0000 H   0  0  0  0  0  0  0  0  0  0  0  0
    0.0000    0.0000    0.0000 H   0  0  0  0  0  0  0  0  0  0  0  0
    0.0000    0.0000    0.0000 H   0  0  0  0  0  0  0  0  0  0  0  0
    0.0000    0.0000    0.0000 H   0  0  0  0  0  0  0  0  0  0  0  0
    0.0000    0.0000    0.0000 H   0  0  0  0  0  0  0  0  0  0  0  0
    0.0000    0.0000    0.0000 H   0  0  0  0  0  0  0  0  0  0  0  0
    0.0000    0.0000    0.0000 H   0  0  0  0  0  0  0  0  0  0  0  0
    0.0000    0.0000    0.0000 H   0  0  0  0  0  0  0  0  0  0  0  0
    0.0000    0.0000    0.0000 H   0  0  0  0  0  0  0  0  0  0  0  0
    0.0000    0.0000    0.0000 H   0  0  0  0  0  0  0  0  0  0  0  0
    0.0000    0.0000    0.0000 H   0  0  0  0  0  0  0  0  0  0  0  0
    0.0000    0.0000    0.0000 H   0  0  0  0  0  0  0  0  0  0  0  0
    0.0000    0.0000    0.0000 H   0  0  0  0  0  0  0  0  0  0  0  0
    0.0000    0.0000    0.0000 H   0  0  0  0  0  0  0  0  0  0  0  0
    0.0000    0.0000    0.0000 H   0  0  0  0  0  0  0  0  0  0  0  0
    0.0000    0.0000    0.0000 H   0  0  0  0  0  0  0  0  0  0  0  0
    0.0000    0.0000    0.0000 H   0  0  0  0  0  0  0  0  0  0  0  0
    0.0000    0.0000    0.0000 H   0  0  0  0  0  0  0  0  0  0  0  0
    0.0000    0.0000    0.0000 H   0  0  0  0  0  0  0  0  0  0  0  0
    0.0000    0.0000    0.0000 H   0  0  0  0  0  0  0  0  0  0  0  0
    0.0000    0.0000    0.0000 H   0  0  0  0  0  0  0  0  0  0  0  0
    0.0000    0.0000    0.0000 H   0  0  0  0  0  0  0  0  0  0  0  0
    0.0000    0.0000    0.0000 H   0  0  0  0  0  0  0  0  0  0  0  0
    0.0000    0.0000    0.0000 H   0  0  0  0  0  0  0  0  0  0  0  0
  1  2  1  0
  1  3  1  0
  1  4  1  0
  2  5  1  0
  2  6  1  0
  2  7  1  6
  3  8  1  0
  3  9  1  6
  4 10  1  0
  4 11  1  6
  5 12  2  0
  5 13  1  0
  6 14  1  0
  6 15  2  0
  8 16  1  0
 10 17  1  0
 11 18  1  0
 11 19  1  0
 12 20  1  0
 14 21  1  0
 16 22  1  0
 16 23  1  6
 20 24  1  0
 20 25  2  0
 21 26  1  0
 21 27  2  0
 22 28  2  0
 24 29  2  0
 28 30  1  0
 29 31  1  0
 29 32  1  0
  8 12  1  0
 10 14  2  0
 22 24  1  0
 30 31  2  0
 16 33  1  0
  1 34  1  6
  3 35  1  0
  4 36  1  0
  7 37  1  0
  8 38  1  6
  9 39  1  0
 13 40  1  0
 17 41  1  0
 18 42  1  0
 18 43  1  0
 18 44  1  0
 19 45  1  0
 19 46  1  0
 19 47  1  0
 23 48  1  0
 23 49  1  0
 23 50  1  0
 26 51  1  0
 26 52  1  0
 28 53  1  0
 30 54  1  0
 31 55  1  0
 32 56  1  0
 33 57  1  0
M  END
>  <ALOGPS_LOGP>  (1) 
-0.99

>  <ALOGPS_LOGS>  (1) 
-2.52

>  <ALOGPS_SOLUBILITY>  (1) 
1.40e+00 g/l

>  <DATABASE_ID>  (1) 
DB00595

>  <DATABASE_NAME>  (1) 
drugbank

>  <DRUGBANK_ID>  (1) 
DB00595

>  <DRUG_GROUPS>  (1) 
approved; investigational; vet_approved

>  <EXACT_MASS>  (1) 
460.148180376

>  <FORMULA>  (1) 
C22H24N2O9

>  <GENERIC_NAME>  (1) 
Oxytetracycline

>  <INCHI_IDENTIFIER>  (1) 
InChI=1S/C22H24N2O9/c1-21(32)7-5-4-6-8(25)9(7)15(26)10-12(21)17(28)13-14(24(2)3)16(27)11(20(23)31)19(30)22(13,33)18(10)29/h4-6,12-14,17,25,27-29,32-33H,1-3H3,(H2,23,31)/t12-,13-,14+,17+,21-,22+/m1/s1

>  <INCHI_KEY>  (1) 
IWVCMVBTMGNXQD-PXOLEDIWSA-N

>  <INTERNATIONAL_BRANDS>  (1) 
Adamycin; Anglocycline; Corsamycin; Oxacin; Oxypan; Oxyterracyna; Terrados; Terramycin; Tetran; Tetrasona

>  <JCHEM_ACCEPTOR_COUNT>  (1) 
10

>  <JCHEM_AVERAGE_POLARIZABILITY>  (1) 
43.40460832989841

>  <JCHEM_BIOAVAILABILITY>  (1) 
0

>  <JCHEM_DONOR_COUNT>  (1) 
7

>  <JCHEM_FORMAL_CHARGE>  (1) 
0

>  <JCHEM_GHOSE_FILTER>  (1) 
0

>  <JCHEM_IUPAC>  (1) 
(4S,4aR,5S,5aR,6S,12aS)-4-(dimethylamino)-3,5,6,10,12,12a-hexahydroxy-6-methyl-1,11-dioxo-1,4,4a,5,5a,6,11,12a-octahydrotetracene-2-carboxamide

>  <JCHEM_LOGP>  (1) 
-4.59838354675032

>  <JCHEM_MDDR_LIKE_RULE>  (1) 
0

>  <JCHEM_NUMBER_OF_RINGS>  (1) 
4

>  <JCHEM_PHYSIOLOGICAL_CHARGE>  (1) 
-1

>  <JCHEM_PKA>  (1) 
4.55399074769009

>  <JCHEM_PKA_STRONGEST_ACIDIC>  (1) 
0.2429522558923649

>  <JCHEM_PKA_STRONGEST_BASIC>  (1) 
7.75106864581506

>  <JCHEM_POLAR_SURFACE_AREA>  (1) 
201.85

>  <JCHEM_REFRACTIVITY>  (1) 
115.39819999999997

>  <JCHEM_ROTATABLE_BOND_COUNT>  (1) 
2

>  <JCHEM_RULE_OF_FIVE>  (1) 
0

>  <JCHEM_TRADITIONAL_IUPAC>  (1) 
oxytetracycline

>  <JCHEM_VEBER_RULE>  (1) 
0

>  <MOLECULAR_WEIGHT>  (1) 
460.434

>  <SALTS>  (1) 
Oxytetracycline calcium; Oxytetracycline dihydrate; Oxytetracycline hydrochloride; Oxytetracycline mono-alkyl trimethyl ammonium; Oxytetracycline monocalcium

>  <SECONDARY_ACCESSION_NUMBERS>  (1) 
APRD00019

>  <SMILES>  (1) 
[H][C@@]12[C@@H](O)[C@@]3([H])C(C(=O)C4=C(O)C=CC=C4[C@@]3(C)O)=C(O)[C@]1(O)C(=O)C(C(N)=O)=C(O)[C@H]2N(C)C

>  <SYNONYMS>  (1) 
Embryostat; Hydroxytetracyclinum; Mepatar; Oxitetraciclina; Oxytetracyclin; Oxyt√©tracycline; Oxytetracyclinum

$$$$
