
     RDKit          2D

 71 72  0  0  1  0  0  0  0  0999 V2000
   -0.2169    0.6674    0.0000 C   0  0  0  0  0  0  0  0  0  0  0  0
    0.5678    0.4125    0.0000 C   0  0  0  0  0  0  0  0  0  0  0  0
    0.5678   -0.4125    0.0000 C   0  0  0  0  0  0  0  0  0  0  0  0
   -0.7018    0.0000    0.0000 C   0  0  0  0  0  0  0  0  0  0  0  0
   -0.2169   -0.6674    0.0000 C   0  0  0  0  0  0  0  0  0  0  0  0
    1.2822   -0.8250    0.0000 C   0  0  0  0  0  0  0  0  0  0  0  0
    1.9967    0.4125    0.0000 C   0  0  0  0  0  0  0  0  0  0  0  0
    1.2822    0.8250    0.0000 C   0  0  0  0  0  0  0  0  0  0  0  0
   -0.4718    1.4521    0.0000 O   0  0  0  0  0  0  0  0  0  0  0  0
   -0.4718   -1.4521    0.0000 O   0  0  0  0  0  0  0  0  0  0  0  0
    3.4256    2.0625    0.0000 C   0  0  0  0  0  0  0  0  0  0  0  0
    2.7112    1.6500    0.0000 C   0  0  0  0  0  0  0  0  0  0  0  0
    4.8546    2.0625    0.0000 C   0  0  0  0  0  0  0  0  0  0  0  0
    4.1401    1.6500    0.0000 C   0  0  0  0  0  0  0  0  0  0  0  0
    6.2835    2.0625    0.0000 C   0  0  0  0  0  0  0  0  0  0  0  0
    5.5691    1.6500    0.0000 O   0  0  0  0  0  0  0  0  0  0  0  0
    6.9980    1.6500    0.0000 C   0  0  0  0  0  0  0  0  0  0  0  0
    4.8546    2.8875    0.0000 O   0  0  0  0  0  0  0  0  0  0  0  0
    6.2835    2.8875    0.0000 C   0  0  0  0  0  0  0  0  0  0  0  0
    1.9967   -0.4125    0.0000 C   0  0  0  0  0  0  0  0  0  0  0  0
    2.7112   -0.8250    0.0000 C   0  0  0  0  0  0  0  0  0  0  0  0
    2.7112   -1.6500    0.0000 O   0  0  0  0  0  0  0  0  0  0  0  0
    4.1401   -0.8250    0.0000 C   0  0  0  0  0  0  0  0  0  0  0  0
    4.8546   -0.4125    0.0000 C   0  0  0  0  0  0  0  0  0  0  0  0
    5.5691   -0.8250    0.0000 C   0  0  0  0  0  0  0  0  0  0  0  0
    6.2835   -0.4125    0.0000 C   0  0  0  0  0  0  0  0  0  0  0  0
    6.2835    0.4125    0.0000 C   0  0  0  0  0  0  0  0  0  0  0  0
    5.5691    0.8250    0.0000 C   0  0  0  0  0  0  0  0  0  0  0  0
    3.4256   -0.4125    0.0000 C   0  0  0  0  0  0  0  0  0  0  0  0
    2.7112    0.8250    0.0000 C   0  0  0  0  0  0  0  0  0  0  0  0
    4.8546    0.4125    0.0000 C   0  0  0  0  0  0  0  0  0  0  0  0
    0.0000    0.0000    0.0000 H   0  0  0  0  0  0  0  0  0  0  0  0
    0.0000    0.0000    0.0000 H   0  0  0  0  0  0  0  0  0  0  0  0
    0.0000    0.0000    0.0000 H   0  0  0  0  0  0  0  0  0  0  0  0
    0.0000    0.0000    0.0000 H   0  0  0  0  0  0  0  0  0  0  0  0
    0.0000    0.0000    0.0000 H   0  0  0  0  0  0  0  0  0  0  0  0
    0.0000    0.0000    0.0000 H   0  0  0  0  0  0  0  0  0  0  0  0
    0.0000    0.0000    0.0000 H   0  0  0  0  0  0  0  0  0  0  0  0
    0.0000    0.0000    0.0000 H   0  0  0  0  0  0  0  0  0  0  0  0
    0.0000    0.0000    0.0000 H   0  0  0  0  0  0  0  0  0  0  0  0
    0.0000    0.0000    0.0000 H   0  0  0  0  0  0  0  0  0  0  0  0
    0.0000    0.0000    0.0000 H   0  0  0  0  0  0  0  0  0  0  0  0
    0.0000    0.0000    0.0000 H   0  0  0  0  0  0  0  0  0  0  0  0
    0.0000    0.0000    0.0000 H   0  0  0  0  0  0  0  0  0  0  0  0
    0.0000    0.0000    0.0000 H   0  0  0  0  0  0  0  0  0  0  0  0
    0.0000    0.0000    0.0000 H   0  0  0  0  0  0  0  0  0  0  0  0
    0.0000    0.0000    0.0000 H   0  0  0  0  0  0  0  0  0  0  0  0
    0.0000    0.0000    0.0000 H   0  0  0  0  0  0  0  0  0  0  0  0
    0.0000    0.0000    0.0000 H   0  0  0  0  0  0  0  0  0  0  0  0
    0.0000    0.0000    0.0000 H   0  0  0  0  0  0  0  0  0  0  0  0
    0.0000    0.0000    0.0000 H   0  0  0  0  0  0  0  0  0  0  0  0
    0.0000    0.0000    0.0000 H   0  0  0  0  0  0  0  0  0  0  0  0
    0.0000    0.0000    0.0000 H   0  0  0  0  0  0  0  0  0  0  0  0
    0.0000    0.0000    0.0000 H   0  0  0  0  0  0  0  0  0  0  0  0
    0.0000    0.0000    0.0000 H   0  0  0  0  0  0  0  0  0  0  0  0
    0.0000    0.0000    0.0000 H   0  0  0  0  0  0  0  0  0  0  0  0
    0.0000    0.0000    0.0000 H   0  0  0  0  0  0  0  0  0  0  0  0
    0.0000    0.0000    0.0000 H   0  0  0  0  0  0  0  0  0  0  0  0
    0.0000    0.0000    0.0000 H   0  0  0  0  0  0  0  0  0  0  0  0
    0.0000    0.0000    0.0000 H   0  0  0  0  0  0  0  0  0  0  0  0
    0.0000    0.0000    0.0000 H   0  0  0  0  0  0  0  0  0  0  0  0
    0.0000    0.0000    0.0000 H   0  0  0  0  0  0  0  0  0  0  0  0
    0.0000    0.0000    0.0000 H   0  0  0  0  0  0  0  0  0  0  0  0
    0.0000    0.0000    0.0000 H   0  0  0  0  0  0  0  0  0  0  0  0
    0.0000    0.0000    0.0000 H   0  0  0  0  0  0  0  0  0  0  0  0
    0.0000    0.0000    0.0000 H   0  0  0  0  0  0  0  0  0  0  0  0
    0.0000    0.0000    0.0000 H   0  0  0  0  0  0  0  0  0  0  0  0
    0.0000    0.0000    0.0000 H   0  0  0  0  0  0  0  0  0  0  0  0
    0.0000    0.0000    0.0000 H   0  0  0  0  0  0  0  0  0  0  0  0
    0.0000    0.0000    0.0000 H   0  0  0  0  0  0  0  0  0  0  0  0
    0.0000    0.0000    0.0000 H   0  0  0  0  0  0  0  0  0  0  0  0
  1  9  1  1
  2  1  1  0
  2  8  1  1
  3  2  1  0
  3  6  1  6
  1  4  1  0
  4  5  1  0
  3  5  1  0
  5 10  1  1
  6 20  1  0
  7  8  1  0
  7 30  2  0
 11 12  1  0
 11 14  1  0
 30 12  1  0
 13 14  1  0
 13 16  1  0
 13 18  2  0
 15 16  1  0
 15 17  1  0
 15 19  1  0
 21 20  1  6
 21 29  1  0
 21 22  1  0
 29 23  1  0
 23 24  1  0
 24 25  2  0
 24 31  1  0
 25 26  1  0
 26 27  2  0
 27 28  1  0
 28 31  2  0
  1 32  1  0
  2 33  1  0
  3 34  1  0
  4 35  1  0
  4 36  1  0
  5 37  1  0
  6 38  1  0
  6 39  1  0
  7 40  1  0
  8 41  1  0
  8 42  1  0
  9 43  1  0
 10 44  1  0
 11 45  1  0
 11 46  1  0
 12 47  1  0
 12 48  1  0
 14 49  1  0
 14 50  1  0
 15 51  1  0
 17 52  1  0
 17 53  1  0
 17 54  1  0
 19 55  1  0
 19 56  1  0
 19 57  1  0
 20 58  1  0
 20 59  1  0
 21 60  1  0
 22 61  1  0
 23 62  1  0
 23 63  1  0
 25 64  1  0
 26 65  1  0
 27 66  1  0
 28 67  1  0
 29 68  1  0
 29 69  1  0
 30 70  1  0
 31 71  1  0
M  END
>  <ALOGPS_LOGP>  (1) 
4.16

>  <ALOGPS_LOGS>  (1) 
-4.53

>  <ALOGPS_SOLUBILITY>  (1) 
1.29e-02 g/l

>  <DATABASE_ID>  (1) 
DB00654

>  <DATABASE_NAME>  (1) 
drugbank

>  <DRUGBANK_ID>  (1) 
DB00654

>  <DRUG_GROUPS>  (1) 
approved; investigational

>  <EXACT_MASS>  (1) 
432.28757439

>  <FORMULA>  (1) 
C26H40O5

>  <GENERIC_NAME>  (1) 
Latanoprost

>  <INCHI_IDENTIFIER>  (1) 
InChI=1S/C26H40O5/c1-19(2)31-26(30)13-9-4-3-8-12-22-23(25(29)18-24(22)28)17-16-21(27)15-14-20-10-6-5-7-11-20/h3,5-8,10-11,19,21-25,27-29H,4,9,12-18H2,1-2H3/b8-3-/t21-,22+,23+,24-,25+/m0/s1

>  <INCHI_KEY>  (1) 
GGXICVAJURFBLW-CEYXHVGTSA-N

>  <INTERNATIONAL_BRANDS>  (1) 
Arulatan; Gaap; Gaap Ofteno; Gaax; Glaucogesic; Glaumax; Glauprost; Hysite; Iopize; Ioprost; Ioptame; Klonaprost; Lanoprost; Lanotan; Laprost; Latacris; Latalux; Latan-Ophtal; Lataneau

>  <JCHEM_ACCEPTOR_COUNT>  (1) 
4

>  <JCHEM_AVERAGE_POLARIZABILITY>  (1) 
50.705778922667164

>  <JCHEM_BIOAVAILABILITY>  (1) 
1

>  <JCHEM_DONOR_COUNT>  (1) 
3

>  <JCHEM_FORMAL_CHARGE>  (1) 
0

>  <JCHEM_GHOSE_FILTER>  (1) 
0

>  <JCHEM_IUPAC>  (1) 
propan-2-yl (5Z)-7-[(1R,2R,3R,5S)-3,5-dihydroxy-2-[(3R)-3-hydroxy-5-phenylpentyl]cyclopentyl]hept-5-enoate

>  <JCHEM_LOGP>  (1) 
3.9810122920000004

>  <JCHEM_MDDR_LIKE_RULE>  (1) 
0

>  <JCHEM_NUMBER_OF_RINGS>  (1) 
2

>  <JCHEM_PHYSIOLOGICAL_CHARGE>  (1) 
0

>  <JCHEM_PKA>  (1) 
15.030507756558752

>  <JCHEM_PKA_STRONGEST_ACIDIC>  (1) 
14.468506924942975

>  <JCHEM_PKA_STRONGEST_BASIC>  (1) 
-2.6894106134355082

>  <JCHEM_POLAR_SURFACE_AREA>  (1) 
86.99

>  <JCHEM_REFRACTIVITY>  (1) 
124.3376

>  <JCHEM_ROTATABLE_BOND_COUNT>  (1) 
14

>  <JCHEM_RULE_OF_FIVE>  (1) 
1

>  <JCHEM_TRADITIONAL_IUPAC>  (1) 
latanoprost

>  <JCHEM_VEBER_RULE>  (1) 
0

>  <MOLECULAR_WEIGHT>  (1) 
432.5928

>  <PRODUCTS>  (1) 
Act Latanoprost; Act Latanoprost/timolol; Apo-latanoprost; Apo-latanoprost-timop; Bl Latanoprost; Gd-latanoprost; Gd-latanoprost/timolol; Jamp-latanoprost; Jamp-latanoprost/timolol; Latanoprost; Latanoprost Ophthalmic Solution; Med-latanoprost; Med-latanoprost-timolol; Mint-latanoprost; Mint-latanoprost/timolol; Monoprost; Mylan-latanoprost/timolol; PMS-latanoprost; PMS-latanoprost-timolol; Riva-latanoprost; Riva-latanoprost/timolol; Sandoz Latanoprost; Sandoz Latanoprost/timolol; Taro-latanoprost; Teva-latanoprost; Teva-latanoprost/timolol; Xalacom; Xalatan

>  <SECONDARY_ACCESSION_NUMBERS>  (1) 
APRD01065

>  <SMILES>  (1) 
CC(C)OC(=O)CCC\C=C/C[C@H]1[C@@H](O)C[C@@H](O)[C@@H]1CC[C@@H](O)CCC1=CC=CC=C1

>  <SYNONYMS>  (1) 
Latanoprost; Latanoprostum

$$$$
