744
     RDKit          2D

 28 29  0  0  1  0  0  0  0  0999 V2000
    3.8597    1.1874    0.0000 S   0  0  0  0  0  0  0  0  0  0  0  0
    5.1662   -0.9055    0.0000 O   0  0  0  0  0  0  0  0  0  0  0  0
    6.8162    0.5235    0.0000 O   0  0  0  0  0  0  0  0  0  0  0  0
    5.5787   -0.1910    0.0000 N   0  0  0  0  0  0  0  0  0  0  0  0
    6.8162   -0.9055    0.0000 N   0  0  0  0  0  0  0  0  0  0  0  0
    5.1662    0.5235    0.0000 C   0  0  0  0  0  0  0  0  0  0  0  0
    4.3412    0.5235    0.0000 C   0  0  0  0  0  0  0  0  0  0  0  0
    3.0791    0.1110    0.0000 C   0  0  0  0  0  0  0  0  0  0  0  0
    3.8597   -0.1404    0.0000 C   0  0  0  0  0  0  0  0  0  0  0  0
    3.0791    0.9360    0.0000 C   0  0  0  0  0  0  0  0  0  0  0  0
    5.5787    1.2379    0.0000 C   0  0  0  0  0  0  0  0  0  0  0  0
    2.3645   -0.3015    0.0000 C   0  0  0  0  0  0  0  0  0  0  0  0
    2.3645    1.3485    0.0000 C   0  0  0  0  0  0  0  0  0  0  0  0
    1.6500    0.1110    0.0000 C   0  0  0  0  0  0  0  0  0  0  0  0
    1.6500    0.9360    0.0000 C   0  0  0  0  0  0  0  0  0  0  0  0
    6.4037   -0.1910    0.0000 C   0  0  0  0  0  0  0  0  0  0  0  0
    0.0000    0.0000    0.0000 H   0  0  0  0  0  0  0  0  0  0  0  0
    0.0000    0.0000    0.0000 H   0  0  0  0  0  0  0  0  0  0  0  0
    0.0000    0.0000    0.0000 H   0  0  0  0  0  0  0  0  0  0  0  0
    0.0000    0.0000    0.0000 H   0  0  0  0  0  0  0  0  0  0  0  0
    0.0000    0.0000    0.0000 H   0  0  0  0  0  0  0  0  0  0  0  0
    0.0000    0.0000    0.0000 H   0  0  0  0  0  0  0  0  0  0  0  0
    0.0000    0.0000    0.0000 H   0  0  0  0  0  0  0  0  0  0  0  0
    0.0000    0.0000    0.0000 H   0  0  0  0  0  0  0  0  0  0  0  0
    0.0000    0.0000    0.0000 H   0  0  0  0  0  0  0  0  0  0  0  0
    0.0000    0.0000    0.0000 H   0  0  0  0  0  0  0  0  0  0  0  0
    0.0000    0.0000    0.0000 H   0  0  0  0  0  0  0  0  0  0  0  0
    0.0000    0.0000    0.0000 H   0  0  0  0  0  0  0  0  0  0  0  0
  1  7  1  0
  1 10  1  0
  2  4  1  0
  3 16  2  0
  4  6  1  0
  4 16  1  0
  5 16  1  0
  6  7  1  0
  6 11  1  0
  7  9  2  0
  8  9  1  0
  8 10  2  0
  8 12  1  0
 10 13  1  0
 12 14  2  0
 13 15  2  0
 14 15  1  0
  2 17  1  0
  5 18  1  0
  5 19  1  0
  6 20  1  0
  9 21  1  0
 11 22  1  0
 11 23  1  0
 11 24  1  0
 12 25  1  0
 13 26  1  0
 14 27  1  0
 15 28  1  0
M  END
>  <ALOGPS_LOGP>  (1) 
2.01

>  <ALOGPS_LOGS>  (1) 
-3.64

>  <ALOGPS_SOLUBILITY>  (1) 
5.39e-02 g/l

>  <DATABASE_ID>  (1) 
DB00744

>  <DATABASE_NAME>  (1) 
drugbank

>  <DRUGBANK_ID>  (1) 
DB00744

>  <DRUG_GROUPS>  (1) 
approved; investigational; withdrawn

>  <EXACT_MASS>  (1) 
236.061948328

>  <FORMULA>  (1) 
C11H12N2O2S

>  <GENERIC_NAME>  (1) 
Zileuton

>  <INCHI_IDENTIFIER>  (1) 
InChI=1S/C11H12N2O2S/c1-7(13(15)11(12)14)10-6-8-4-2-3-5-9(8)16-10/h2-7,15H,1H3,(H2,12,14)

>  <INCHI_KEY>  (1) 
MWLSOWXNZPKENC-UHFFFAOYSA-N

>  <JCHEM_ACCEPTOR_COUNT>  (1) 
2

>  <JCHEM_AVERAGE_POLARIZABILITY>  (1) 
24.13772048218238

>  <JCHEM_BIOAVAILABILITY>  (1) 
1

>  <JCHEM_DONOR_COUNT>  (1) 
2

>  <JCHEM_FORMAL_CHARGE>  (1) 
0

>  <JCHEM_GHOSE_FILTER>  (1) 
1

>  <JCHEM_IUPAC>  (1) 
1-[1-(1-benzothiophen-2-yl)ethyl]-1-hydroxyurea

>  <JCHEM_LOGP>  (1) 
2.006172834999999

>  <JCHEM_MDDR_LIKE_RULE>  (1) 
0

>  <JCHEM_NUMBER_OF_RINGS>  (1) 
2

>  <JCHEM_PHYSIOLOGICAL_CHARGE>  (1) 
0

>  <JCHEM_PKA_STRONGEST_ACIDIC>  (1) 
8.837783092710643

>  <JCHEM_PKA_STRONGEST_BASIC>  (1) 
-5.494153581458328

>  <JCHEM_POLAR_SURFACE_AREA>  (1) 
66.56

>  <JCHEM_REFRACTIVITY>  (1) 
61.95950000000001

>  <JCHEM_ROTATABLE_BOND_COUNT>  (1) 
2

>  <JCHEM_RULE_OF_FIVE>  (1) 
1

>  <JCHEM_TRADITIONAL_IUPAC>  (1) 
zileuton

>  <JCHEM_VEBER_RULE>  (1) 
0

>  <MOLECULAR_WEIGHT>  (1) 
236.29

>  <PRODUCTS>  (1) 
Zileuton; Zyflo; Zyflo CR

>  <SECONDARY_ACCESSION_NUMBERS>  (1) 
APRD00265

>  <SMILES>  (1) 
CC(N(O)C(N)=O)C1=CC2=CC=CC=C2S1

>  <SYNONYMS>  (1) 
Leutrol; Zileuton; Zileutonum

$$$$
