942
     RDKit          2D

 50 52  0  0  1  0  0  0  0  0999 V2000
    1.9058    0.1902    0.0000 O   0  0  0  0  0  0  0  0  0  0  0  0
    4.7934    0.9047    0.0000 N   0  0  0  0  0  0  0  0  0  0  0  0
    2.7308    1.0153    0.0000 C   0  0  0  0  0  0  0  0  0  0  0  0
    2.7308    0.1902    0.0000 C   0  0  0  0  0  0  0  0  0  0  0  0
    2.0634    1.5002    0.0000 C   0  0  0  0  0  0  0  0  0  0  0  0
    3.3982    1.5002    0.0000 C   0  0  0  0  0  0  0  0  0  0  0  0
    2.3183    2.2848    0.0000 C   0  0  0  0  0  0  0  0  0  0  0  0
    3.1433    2.2848    0.0000 C   0  0  0  0  0  0  0  0  0  0  0  0
    3.5558    0.1902    0.0000 C   0  0  0  0  0  0  0  0  0  0  0  0
    3.9683    0.9047    0.0000 C   0  0  0  0  0  0  0  0  0  0  0  0
    2.7308   -0.6348    0.0000 C   0  0  0  0  0  0  0  0  0  0  0  0
    5.2059    1.6192    0.0000 C   0  0  0  0  0  0  0  0  0  0  0  0
    5.2059    0.1902    0.0000 C   0  0  0  0  0  0  0  0  0  0  0  0
    6.0309    1.6192    0.0000 C   0  0  0  0  0  0  0  0  0  0  0  0
    6.0309    0.1902    0.0000 C   0  0  0  0  0  0  0  0  0  0  0  0
    6.4434    0.9047    0.0000 C   0  0  0  0  0  0  0  0  0  0  0  0
    3.4453   -1.0473    0.0000 C   0  0  0  0  0  0  0  0  0  0  0  0
    2.0163   -1.0473    0.0000 C   0  0  0  0  0  0  0  0  0  0  0  0
    3.4453   -1.8723    0.0000 C   0  0  0  0  0  0  0  0  0  0  0  0
    2.0163   -1.8723    0.0000 C   0  0  0  0  0  0  0  0  0  0  0  0
    2.7308   -2.2848    0.0000 C   0  0  0  0  0  0  0  0  0  0  0  0
    0.0000    0.0000    0.0000 H   0  0  0  0  0  0  0  0  0  0  0  0
    0.0000    0.0000    0.0000 H   0  0  0  0  0  0  0  0  0  0  0  0
    0.0000    0.0000    0.0000 H   0  0  0  0  0  0  0  0  0  0  0  0
    0.0000    0.0000    0.0000 H   0  0  0  0  0  0  0  0  0  0  0  0
    0.0000    0.0000    0.0000 H   0  0  0  0  0  0  0  0  0  0  0  0
    0.0000    0.0000    0.0000 H   0  0  0  0  0  0  0  0  0  0  0  0
    0.0000    0.0000    0.0000 H   0  0  0  0  0  0  0  0  0  0  0  0
    0.0000    0.0000    0.0000 H   0  0  0  0  0  0  0  0  0  0  0  0
    0.0000    0.0000    0.0000 H   0  0  0  0  0  0  0  0  0  0  0  0
    0.0000    0.0000    0.0000 H   0  0  0  0  0  0  0  0  0  0  0  0
    0.0000    0.0000    0.0000 H   0  0  0  0  0  0  0  0  0  0  0  0
    0.0000    0.0000    0.0000 H   0  0  0  0  0  0  0  0  0  0  0  0
    0.0000    0.0000    0.0000 H   0  0  0  0  0  0  0  0  0  0  0  0
    0.0000    0.0000    0.0000 H   0  0  0  0  0  0  0  0  0  0  0  0
    0.0000    0.0000    0.0000 H   0  0  0  0  0  0  0  0  0  0  0  0
    0.0000    0.0000    0.0000 H   0  0  0  0  0  0  0  0  0  0  0  0
    0.0000    0.0000    0.0000 H   0  0  0  0  0  0  0  0  0  0  0  0
    0.0000    0.0000    0.0000 H   0  0  0  0  0  0  0  0  0  0  0  0
    0.0000    0.0000    0.0000 H   0  0  0  0  0  0  0  0  0  0  0  0
    0.0000    0.0000    0.0000 H   0  0  0  0  0  0  0  0  0  0  0  0
    0.0000    0.0000    0.0000 H   0  0  0  0  0  0  0  0  0  0  0  0
    0.0000    0.0000    0.0000 H   0  0  0  0  0  0  0  0  0  0  0  0
    0.0000    0.0000    0.0000 H   0  0  0  0  0  0  0  0  0  0  0  0
    0.0000    0.0000    0.0000 H   0  0  0  0  0  0  0  0  0  0  0  0
    0.0000    0.0000    0.0000 H   0  0  0  0  0  0  0  0  0  0  0  0
    0.0000    0.0000    0.0000 H   0  0  0  0  0  0  0  0  0  0  0  0
    0.0000    0.0000    0.0000 H   0  0  0  0  0  0  0  0  0  0  0  0
    0.0000    0.0000    0.0000 H   0  0  0  0  0  0  0  0  0  0  0  0
    0.0000    0.0000    0.0000 H   0  0  0  0  0  0  0  0  0  0  0  0
  1  4  1  0
  2 10  1  0
  2 12  1  0
  2 13  1  0
  3  4  1  0
  3  5  1  0
  3  6  1  0
  4  9  1  0
  4 11  1  0
  5  7  1  0
  6  8  1  0
  7  8  1  0
  9 10  1  0
 11 17  2  0
 11 18  1  0
 12 14  1  0
 13 15  1  0
 14 16  1  0
 15 16  1  0
 17 19  1  0
 18 20  2  0
 19 21  2  0
 20 21  1  0
  1 22  1  0
  3 23  1  0
  5 24  1  0
  5 25  1  0
  6 26  1  0
  6 27  1  0
  7 28  1  0
  7 29  1  0
  8 30  1  0
  8 31  1  0
  9 32  1  0
  9 33  1  0
 10 34  1  0
 10 35  1  0
 12 36  1  0
 12 37  1  0
 13 38  1  0
 13 39  1  0
 14 40  1  0
 14 41  1  0
 15 42  1  0
 15 43  1  0
 16 44  1  0
 16 45  1  0
 17 46  1  0
 18 47  1  0
 19 48  1  0
 20 49  1  0
 21 50  1  0
M  END
>  <ALOGPS_LOGP>  (1) 
4.15

>  <ALOGPS_LOGS>  (1) 
-4.50

>  <ALOGPS_SOLUBILITY>  (1) 
9.09e-03 g/l

>  <DATABASE_ID>  (1) 
DB00942

>  <DATABASE_NAME>  (1) 
drugbank

>  <DRUGBANK_ID>  (1) 
DB00942

>  <DRUG_GROUPS>  (1) 
approved

>  <EXACT_MASS>  (1) 
287.224914555

>  <FORMULA>  (1) 
C19H29NO

>  <GENERIC_NAME>  (1) 
Cycrimine

>  <INCHI_IDENTIFIER>  (1) 
InChI=1S/C19H29NO/c21-19(18-11-5-6-12-18,17-9-3-1-4-10-17)13-16-20-14-7-2-8-15-20/h1,3-4,9-10,18,21H,2,5-8,11-16H2

>  <INCHI_KEY>  (1) 
SWRUZBWLEWHWRI-UHFFFAOYSA-N

>  <INTERNATIONAL_BRANDS>  (1) 
Pagitane

>  <JCHEM_ACCEPTOR_COUNT>  (1) 
2

>  <JCHEM_AVERAGE_POLARIZABILITY>  (1) 
34.783554719779175

>  <JCHEM_BIOAVAILABILITY>  (1) 
1

>  <JCHEM_DONOR_COUNT>  (1) 
1

>  <JCHEM_FORMAL_CHARGE>  (1) 
0

>  <JCHEM_GHOSE_FILTER>  (1) 
1

>  <JCHEM_IUPAC>  (1) 
1-cyclopentyl-1-phenyl-3-(piperidin-1-yl)propan-1-ol

>  <JCHEM_LOGP>  (1) 
3.7881168286666655

>  <JCHEM_MDDR_LIKE_RULE>  (1) 
0

>  <JCHEM_NUMBER_OF_RINGS>  (1) 
3

>  <JCHEM_PHYSIOLOGICAL_CHARGE>  (1) 
1

>  <JCHEM_PKA_STRONGEST_ACIDIC>  (1) 
13.840029634547864

>  <JCHEM_PKA_STRONGEST_BASIC>  (1) 
9.322450553606162

>  <JCHEM_POLAR_SURFACE_AREA>  (1) 
23.47

>  <JCHEM_REFRACTIVITY>  (1) 
88.60420000000003

>  <JCHEM_ROTATABLE_BOND_COUNT>  (1) 
5

>  <JCHEM_RULE_OF_FIVE>  (1) 
1

>  <JCHEM_TRADITIONAL_IUPAC>  (1) 
cycrimine

>  <JCHEM_VEBER_RULE>  (1) 
1

>  <MOLECULAR_WEIGHT>  (1) 
287.4397

>  <SALTS>  (1) 
Cycrimine hydrochloride

>  <SECONDARY_ACCESSION_NUMBERS>  (1) 
APRD00731

>  <SMILES>  (1) 
OC(CCN1CCCCC1)(C1CCCC1)C1=CC=CC=C1

$$$$
