
     RDKit          2D

 27 29  0  0  0  0  0  0  0  0999 V2000
    1.7869   -0.8250    0.0000 C   0  0  0  0  0  0  0  0  0  0  0  0
    1.7869    0.8250    0.0000 C   0  0  0  0  0  0  0  0  0  0  0  0
    2.5013    0.4125    0.0000 C   0  0  0  0  0  0  0  0  0  0  0  0
    2.5013   -0.4125    0.0000 C   0  0  0  0  0  0  0  0  0  0  0  0
    1.0724    0.4125    0.0000 C   0  0  0  0  0  0  0  0  0  0  0  0
    1.0724   -0.4125    0.0000 C   0  0  0  0  0  0  0  0  0  0  0  0
    0.2878   -0.6674    0.0000 N   0  0  0  0  0  0  0  0  0  0  0  0
    0.2878    0.6674    0.0000 N   0  0  0  0  0  0  0  0  0  0  0  0
   -1.7870    0.4124    0.0000 C   0  0  0  0  0  0  0  0  0  0  0  0
   -1.7870   -0.4125    0.0000 C   0  0  0  0  0  0  0  0  0  0  0  0
   -0.3573    0.0000    0.0000 Pt  0  0  0  0  0  0  0  0  0  0  0  0
   -1.0024    0.6673    0.0000 O   0  0  0  0  0  0  0  0  0  0  0  0
   -1.0024   -0.6674    0.0000 O   0  0  0  0  0  0  0  0  0  0  0  0
   -2.5014   -0.8250    0.0000 O   0  0  0  0  0  0  0  0  0  0  0  0
   -2.5014    0.8249    0.0000 O   0  0  0  0  0  0  0  0  0  0  0  0
    0.0000    0.0000    0.0000 H   0  0  0  0  0  0  0  0  0  0  0  0
    0.0000    0.0000    0.0000 H   0  0  0  0  0  0  0  0  0  0  0  0
    0.0000    0.0000    0.0000 H   0  0  0  0  0  0  0  0  0  0  0  0
    0.0000    0.0000    0.0000 H   0  0  0  0  0  0  0  0  0  0  0  0
    0.0000    0.0000    0.0000 H   0  0  0  0  0  0  0  0  0  0  0  0
    0.0000    0.0000    0.0000 H   0  0  0  0  0  0  0  0  0  0  0  0
    0.0000    0.0000    0.0000 H   0  0  0  0  0  0  0  0  0  0  0  0
    0.0000    0.0000    0.0000 H   0  0  0  0  0  0  0  0  0  0  0  0
    0.0000    0.0000    0.0000 H   0  0  0  0  0  0  0  0  0  0  0  0
    0.0000    0.0000    0.0000 H   0  0  0  0  0  0  0  0  0  0  0  0
    0.0000    0.0000    0.0000 H   0  0  0  0  0  0  0  0  0  0  0  0
    0.0000    0.0000    0.0000 H   0  0  0  0  0  0  0  0  0  0  0  0
  1  6  1  0
  1  4  1  0
  5  2  1  0
  2  3  1  0
  3  4  1  0
  5  8  1  0
  5  6  1  0
  6  7  1  0
  7 11  1  0
 11  8  1  0
 14 10  2  0
  9 15  2  0
  9 12  1  0
  9 10  1  0
 10 13  1  0
 13 11  1  0
 11 12  1  0
  1 16  1  0
  1 17  1  0
  2 18  1  0
  2 19  1  0
  3 20  1  0
  3 21  1  0
  4 22  1  0
  4 23  1  0
  5 24  1  1
  6 25  1  6
  7 26  1  0
  8 27  1  0
M  END
>  <ALOGPS_LOGP>  (1) 
-0.47

>  <ALOGPS_LOGS>  (1) 
-1.16

>  <ALOGPS_SOLUBILITY>  (1) 
2.75e+01 g/l

>  <DATABASE_ID>  (1) 
DB00526

>  <DATABASE_NAME>  (1) 
drugbank

>  <DRUGBANK_ID>  (1) 
DB00526

>  <DRUG_GROUPS>  (1) 
approved; investigational

>  <EXACT_MASS>  (1) 
397.060149

>  <FORMULA>  (1) 
C8H14N2O4Pt

>  <GENERIC_NAME>  (1) 
Oxaliplatin

>  <INCHI_IDENTIFIER>  (1) 
InChI=1S/C6H14N2.C2H2O4.Pt/c7-5-3-1-2-4-6(5)8;3-1(4)2(5)6;/h5-6H,1-4,7-8H2;(H,3,4)(H,5,6);/q;;+2/p-2/t5-,6-;;/m1../s1

>  <INCHI_KEY>  (1) 
ZROHGHOFXNOHSO-BNTLRKBRSA-L

>  <JCHEM_ACCEPTOR_COUNT>  (1) 
0

>  <JCHEM_ATOM_COUNT>  (1) 
29

>  <JCHEM_AVERAGE_POLARIZABILITY>  (1) 
21.897307064487705

>  <JCHEM_BIOAVAILABILITY>  (1) 
1

>  <JCHEM_DONOR_COUNT>  (1) 
0

>  <JCHEM_FORMAL_CHARGE>  (1) 
0

>  <JCHEM_GHOSE_FILTER>  (1) 
0

>  <JCHEM_IUPAC>  (1) 
(3aR,7aR)-octahydro-2',5'-dioxaspiro[cyclohexa[d]1,3-diaza-2-platinacyclopentane-2,1'-cyclopentane]-3',4'-dione

>  <JCHEM_MDDR_LIKE_RULE>  (1) 
0

>  <JCHEM_NUMBER_OF_RINGS>  (1) 
3

>  <JCHEM_PHYSIOLOGICAL_CHARGE>  (1) 
0

>  <JCHEM_POLAR_SURFACE_AREA>  (1) 
85.82

>  <JCHEM_REFRACTIVITY>  (1) 
67.521

>  <JCHEM_ROTATABLE_BOND_COUNT>  (1) 
0

>  <JCHEM_RULE_OF_FIVE>  (1) 
0

>  <JCHEM_TRADITIONAL_IUPAC>  (1) 
oxaliplatin

>  <JCHEM_VEBER_RULE>  (1) 
0

>  <MOLECULAR_WEIGHT>  (1) 
397.294

>  <PRODUCTS>  (1) 
Act Oxaliplatin; Eloxatin; Oxaliplatin; Oxaliplatin Injection; Oxaliplatin Injection USP; Oxaliplatin Injection, USP; Oxaliplatin for Injection; PMS-oxaliplatin; Taro-oxaliplatin; Teva-oxaliplatin Injection

>  <SECONDARY_ACCESSION_NUMBERS>  (1) 
APRD00186

>  <SMILES>  (1) 
[H][N]1([H])[C@@H]2CCCC[C@H]2[N]([H])([H])[Pt]11OC(=O)C(=O)O1

>  <SYNONYMS>  (1) 
Diaminocyclohexane Oxalatoplatinum; L-OHP; Oxalatoplatin; Oxalatoplatinum; oxaliplatine; oxaliplatino; oxaliplatinum

$$$$
