
     RDKit          2D

 22 22  0  0  0  0  0  0  0  0999 V2000
   -0.1467    3.1768    0.0000 C   0  0  0  0  0  0  0  0  0  0  0  0
   -0.1467    2.3518    0.0000 C   0  0  0  0  0  0  0  0  0  0  0  0
   -0.8612    1.9393    0.0000 O   0  0  0  0  0  0  0  0  0  0  0  0
    0.5678    1.9393    0.0000 N   0  0  0  0  0  0  0  0  0  0  0  0
    0.5678    1.1143    0.0000 C   0  0  0  0  0  0  0  0  0  0  0  0
    1.2352    0.6294    0.0000 N   0  0  0  0  0  0  0  0  0  0  0  0
    0.9803   -0.1553    0.0000 N   0  0  0  0  0  0  0  0  0  0  0  0
    0.1553   -0.1553    0.0000 C   0  0  0  0  0  0  0  0  0  0  0  0
   -0.0997    0.6294    0.0000 S   0  0  0  0  0  0  0  0  0  0  0  0
   -0.3297   -0.8227    0.0000 S   0  0  0  0  0  0  0  0  0  0  0  0
   -0.8146   -1.4901    0.0000 O   0  0  0  0  0  0  0  0  0  0  0  0
   -0.9971   -0.3378    0.0000 O   0  0  0  0  0  0  0  0  0  0  0  0
    0.3378   -1.3076    0.0000 N   0  0  0  0  0  0  0  0  0  0  0  0
    2.0198    0.8843    0.0000 C   0  0  0  0  0  0  0  0  0  0  0  0
    0.0000    0.0000    0.0000 H   0  0  0  0  0  0  0  0  0  0  0  0
    0.0000    0.0000    0.0000 H   0  0  0  0  0  0  0  0  0  0  0  0
    0.0000    0.0000    0.0000 H   0  0  0  0  0  0  0  0  0  0  0  0
    0.0000    0.0000    0.0000 H   0  0  0  0  0  0  0  0  0  0  0  0
    0.0000    0.0000    0.0000 H   0  0  0  0  0  0  0  0  0  0  0  0
    0.0000    0.0000    0.0000 H   0  0  0  0  0  0  0  0  0  0  0  0
    0.0000    0.0000    0.0000 H   0  0  0  0  0  0  0  0  0  0  0  0
    0.0000    0.0000    0.0000 H   0  0  0  0  0  0  0  0  0  0  0  0
  1  2  1  0
  2  3  2  0
  4  2  1  0
  4  5  2  3
  5  6  1  0
  6  7  1  0
  7  8  2  0
  8  9  1  0
  5  9  1  0
  8 10  1  0
 10 11  2  0
 10 12  2  0
 10 13  1  0
  6 14  1  0
  1 15  1  0
  1 16  1  0
  1 17  1  0
 13 18  1  0
 13 19  1  0
 14 20  1  0
 14 21  1  0
 14 22  1  0
M  END
>  <ALOGPS_LOGP>  (1) 
-0.20

>  <ALOGPS_LOGS>  (1) 
-2.13

>  <ALOGPS_SOLUBILITY>  (1) 
1.74e+00 g/l

>  <DATABASE_ID>  (1) 
DB00703

>  <DATABASE_NAME>  (1) 
drugbank

>  <DRUGBANK_ID>  (1) 
DB00703

>  <DRUG_GROUPS>  (1) 
approved

>  <EXACT_MASS>  (1) 
236.003782482

>  <FORMULA>  (1) 
C5H8N4O3S2

>  <GENERIC_NAME>  (1) 
Methazolamide

>  <INCHI_IDENTIFIER>  (1) 
InChI=1S/C5H8N4O3S2/c1-3(10)7-4-9(2)8-5(13-4)14(6,11)12/h1-2H3,(H2,6,11,12)

>  <INCHI_KEY>  (1) 
FLOSMHQXBMRNHR-UHFFFAOYSA-N

>  <INTERNATIONAL_BRANDS>  (1) 
Naptazane; Neptazane

>  <JCHEM_ACCEPTOR_COUNT>  (1) 
6

>  <JCHEM_ATOM_COUNT>  (1) 
22

>  <JCHEM_AVERAGE_POLARIZABILITY>  (1) 
20.988367995724253

>  <JCHEM_BIOAVAILABILITY>  (1) 
1

>  <JCHEM_DONOR_COUNT>  (1) 
1

>  <JCHEM_FORMAL_CHARGE>  (1) 
0

>  <JCHEM_GHOSE_FILTER>  (1) 
0

>  <JCHEM_IUPAC>  (1) 
N-(3-methyl-5-sulfamoyl-2,3-dihydro-1,3,4-thiadiazol-2-ylidene)acetamide

>  <JCHEM_LOGP>  (1) 
-0.593433132

>  <JCHEM_MDDR_LIKE_RULE>  (1) 
0

>  <JCHEM_NUMBER_OF_RINGS>  (1) 
1

>  <JCHEM_PHYSIOLOGICAL_CHARGE>  (1) 
0

>  <JCHEM_PKA>  (1) 
19.331873521151557

>  <JCHEM_PKA_STRONGEST_ACIDIC>  (1) 
7.208445537006113

>  <JCHEM_PKA_STRONGEST_BASIC>  (1) 
-3.640455179599608

>  <JCHEM_POLAR_SURFACE_AREA>  (1) 
105.19

>  <JCHEM_REFRACTIVITY>  (1) 
51.29710000000001

>  <JCHEM_ROTATABLE_BOND_COUNT>  (1) 
1

>  <JCHEM_RULE_OF_FIVE>  (1) 
1

>  <JCHEM_TRADITIONAL_IUPAC>  (1) 
methazolamide

>  <JCHEM_VEBER_RULE>  (1) 
0

>  <MOLECULAR_WEIGHT>  (1) 
236.26

>  <PRODUCTS>  (1) 
Methazolamide; Neptazane; Neptazane Tablets 25mg; Neptazane Tablets 25mg USP; Neptazane Tablets 50mg

>  <SECONDARY_ACCESSION_NUMBERS>  (1) 
APRD00740

>  <SMILES>  (1) 
CN1N=C(SC1=NC(C)=O)S(N)(=O)=O

>  <SYNONYMS>  (1) 
Metazolamida; Methazolamid; MÃ©thazolamide; Methazolamidum; Methenamide; Neptazaneat

$$$$
