639
     RDKit          2D

 42 44  0  0  1  0  0  0  0  0999 V2000
    4.5080   -0.9085    0.0000 Cl  0  0  0  0  0  0  0  0  0  0  0  0
    1.6500   -0.9085    0.0000 Cl  0  0  0  0  0  0  0  0  0  0  0  0
    8.0804   -1.3210    0.0000 Cl  0  0  0  0  0  0  0  0  0  0  0  0
    3.0791   -0.0835    0.0000 S   0  0  0  0  0  0  0  0  0  0  0  0
    4.5080    1.5665    0.0000 N   0  0  0  0  0  0  0  0  0  0  0  0
    5.4012    2.5585    0.0000 N   0  0  0  0  0  0  0  0  0  0  0  0
    3.7935    0.3290    0.0000 C   0  0  0  0  0  0  0  0  0  0  0  0
    4.5080   -0.0835    0.0000 C   0  0  0  0  0  0  0  0  0  0  0  0
    3.7935    1.1540    0.0000 C   0  0  0  0  0  0  0  0  0  0  0  0
    5.2224    0.3290    0.0000 C   0  0  0  0  0  0  0  0  0  0  0  0
    5.9370   -0.0835    0.0000 C   0  0  0  0  0  0  0  0  0  0  0  0
    3.0791   -0.9085    0.0000 C   0  0  0  0  0  0  0  0  0  0  0  0
    5.2616    1.2309    0.0000 C   0  0  0  0  0  0  0  0  0  0  0  0
    4.5942    2.3870    0.0000 C   0  0  0  0  0  0  0  0  0  0  0  0
    6.6515    0.3290    0.0000 C   0  0  0  0  0  0  0  0  0  0  0  0
    5.9370   -0.9085    0.0000 C   0  0  0  0  0  0  0  0  0  0  0  0
    5.8137    1.8441    0.0000 C   0  0  0  0  0  0  0  0  0  0  0  0
    7.3659   -0.0835    0.0000 C   0  0  0  0  0  0  0  0  0  0  0  0
    6.6515   -1.3210    0.0000 C   0  0  0  0  0  0  0  0  0  0  0  0
    3.7935   -1.3210    0.0000 C   0  0  0  0  0  0  0  0  0  0  0  0
    2.3645   -1.3210    0.0000 C   0  0  0  0  0  0  0  0  0  0  0  0
    7.3659   -0.9085    0.0000 C   0  0  0  0  0  0  0  0  0  0  0  0
    3.7935   -2.1460    0.0000 C   0  0  0  0  0  0  0  0  0  0  0  0
    2.3645   -2.1460    0.0000 C   0  0  0  0  0  0  0  0  0  0  0  0
    3.0791   -2.5585    0.0000 C   0  0  0  0  0  0  0  0  0  0  0  0
    0.0000    0.0000    0.0000 H   0  0  0  0  0  0  0  0  0  0  0  0
    0.0000    0.0000    0.0000 H   0  0  0  0  0  0  0  0  0  0  0  0
    0.0000    0.0000    0.0000 H   0  0  0  0  0  0  0  0  0  0  0  0
    0.0000    0.0000    0.0000 H   0  0  0  0  0  0  0  0  0  0  0  0
    0.0000    0.0000    0.0000 H   0  0  0  0  0  0  0  0  0  0  0  0
    0.0000    0.0000    0.0000 H   0  0  0  0  0  0  0  0  0  0  0  0
    0.0000    0.0000    0.0000 H   0  0  0  0  0  0  0  0  0  0  0  0
    0.0000    0.0000    0.0000 H   0  0  0  0  0  0  0  0  0  0  0  0
    0.0000    0.0000    0.0000 H   0  0  0  0  0  0  0  0  0  0  0  0
    0.0000    0.0000    0.0000 H   0  0  0  0  0  0  0  0  0  0  0  0
    0.0000    0.0000    0.0000 H   0  0  0  0  0  0  0  0  0  0  0  0
    0.0000    0.0000    0.0000 H   0  0  0  0  0  0  0  0  0  0  0  0
    0.0000    0.0000    0.0000 H   0  0  0  0  0  0  0  0  0  0  0  0
    0.0000    0.0000    0.0000 H   0  0  0  0  0  0  0  0  0  0  0  0
    0.0000    0.0000    0.0000 H   0  0  0  0  0  0  0  0  0  0  0  0
    0.0000    0.0000    0.0000 H   0  0  0  0  0  0  0  0  0  0  0  0
    0.0000    0.0000    0.0000 H   0  0  0  0  0  0  0  0  0  0  0  0
  1 20  1  0
  2 21  1  0
  3 22  1  0
  4  7  1  0
  4 12  1  0
  5  9  1  0
  5 13  1  0
  5 14  1  0
  6 14  2  0
  6 17  1  0
  7  8  1  0
  7  9  1  0
  8 10  1  0
 10 11  1  0
 11 15  2  0
 11 16  1  0
 12 20  2  0
 12 21  1  0
 13 17  2  0
 15 18  1  0
 16 19  2  0
 18 22  2  0
 19 22  1  0
 20 23  1  0
 21 24  2  0
 23 25  2  0
 24 25  1  0
  7 26  1  0
  8 27  1  0
  8 28  1  0
  9 29  1  0
  9 30  1  0
 10 31  1  0
 10 32  1  0
 13 33  1  0
 14 34  1  0
 15 35  1  0
 16 36  1  0
 17 37  1  0
 18 38  1  0
 19 39  1  0
 23 40  1  0
 24 41  1  0
 25 42  1  0
M  END
>  <ALOGPS_LOGP>  (1) 
6.70

>  <ALOGPS_LOGS>  (1) 
-5.70

>  <ALOGPS_SOLUBILITY>  (1) 
8.18e-04 g/l

>  <DATABASE_ID>  (1) 
DB00639

>  <DATABASE_NAME>  (1) 
drugbank

>  <DRUGBANK_ID>  (1) 
DB00639

>  <DRUG_GROUPS>  (1) 
approved

>  <EXACT_MASS>  (1) 
410.017802365

>  <FORMULA>  (1) 
C19H17Cl3N2S

>  <GENERIC_NAME>  (1) 
Butoconazole

>  <INCHI_IDENTIFIER>  (1) 
InChI=1S/C19H17Cl3N2S/c20-15-7-4-14(5-8-15)6-9-16(12-24-11-10-23-13-24)25-19-17(21)2-1-3-18(19)22/h1-5,7-8,10-11,13,16H,6,9,12H2

>  <INCHI_KEY>  (1) 
SWLMUYACZKCSHZ-UHFFFAOYSA-N

>  <INTERNATIONAL_BRANDS>  (1) 
Femstat; Femstat 3; Gynazol; Gynazole; Gynazole-1; Gynofort; Gynomyk; Inulead; Mycelex-3; Volusol

>  <JCHEM_ACCEPTOR_COUNT>  (1) 
1

>  <JCHEM_AVERAGE_POLARIZABILITY>  (1) 
41.00664949220142

>  <JCHEM_BIOAVAILABILITY>  (1) 
1

>  <JCHEM_DONOR_COUNT>  (1) 
0

>  <JCHEM_FORMAL_CHARGE>  (1) 
0

>  <JCHEM_GHOSE_FILTER>  (1) 
0

>  <JCHEM_IUPAC>  (1) 
1-[4-(4-chlorophenyl)-2-[(2,6-dichlorophenyl)sulfanyl]butyl]-1H-imidazole

>  <JCHEM_LOGP>  (1) 
6.552484297333333

>  <JCHEM_MDDR_LIKE_RULE>  (1) 
1

>  <JCHEM_NUMBER_OF_RINGS>  (1) 
3

>  <JCHEM_PHYSIOLOGICAL_CHARGE>  (1) 
0

>  <JCHEM_PKA_STRONGEST_BASIC>  (1) 
6.7811216992495575

>  <JCHEM_POLAR_SURFACE_AREA>  (1) 
17.82

>  <JCHEM_REFRACTIVITY>  (1) 
108.986

>  <JCHEM_ROTATABLE_BOND_COUNT>  (1) 
7

>  <JCHEM_RULE_OF_FIVE>  (1) 
0

>  <JCHEM_TRADITIONAL_IUPAC>  (1) 
butoconazole

>  <JCHEM_VEBER_RULE>  (1) 
1

>  <MOLECULAR_WEIGHT>  (1) 
411.776

>  <PRODUCTS>  (1) 
Gynazole 1; Gynazole.1

>  <SALTS>  (1) 
Butoconazole nitrate

>  <SECONDARY_ACCESSION_NUMBERS>  (1) 
APRD00834

>  <SMILES>  (1) 
ClC1=CC=C(CCC(CN2C=CN=C2)SC2=C(Cl)C=CC=C2Cl)C=C1

>  <SYNONYMS>  (1) 
Butoconazol; Butoconazole; Butoconazolum; Compositenst√§rke; Dahlin; Polyfructosanum

$$$$
