
     RDKit          2D

 88 91  0  0  1  0  0  0  0  0999 V2000
    6.9377  -11.8238    0.0000 C   0  0  0  0  0  0  0  0  0  0  0  0
    6.2232  -12.2363    0.0000 C   0  0  0  0  0  0  0  0  0  0  0  0
    6.2232  -13.0613    0.0000 C   0  0  0  0  0  0  0  0  0  0  0  0
    6.9377  -13.4739    0.0000 C   0  0  0  0  0  0  0  0  0  0  0  0
    7.6522  -13.0613    0.0000 C   0  0  0  0  0  0  0  0  0  0  0  0
    7.6522  -12.2363    0.0000 C   0  0  0  0  0  0  0  0  0  0  0  0
    8.3666  -11.8238    0.0000 C   0  0  0  0  0  0  0  0  0  0  0  0
    8.3666  -13.4739    0.0000 C   0  0  0  0  0  0  0  0  0  0  0  0
    9.0811  -13.0613    0.0000 C   0  0  0  0  0  0  0  0  0  0  0  0
    9.0811  -12.2363    0.0000 C   0  0  0  0  0  0  0  0  0  0  0  0
    9.0811  -10.5863    0.0000 C   0  0  0  0  0  0  0  0  0  0  0  0
    8.3666  -10.9988    0.0000 C   0  0  0  0  0  0  0  0  0  0  0  0
    9.7956  -11.8238    0.0000 C   0  0  0  0  0  0  0  0  0  0  0  0
    9.7956  -10.9988    0.0000 C   0  0  0  0  0  0  0  0  0  0  0  0
   10.5802  -10.7438    0.0000 C   0  0  0  0  0  0  0  0  0  0  0  0
   10.5802  -12.0787    0.0000 C   0  0  0  0  0  0  0  0  0  0  0  0
   11.0651  -11.4113    0.0000 C   0  0  0  0  0  0  0  0  0  0  0  0
    5.5087  -13.4738    0.0000 O   0  0  0  0  0  0  0  0  0  0  0  0
    9.7956  -13.4738    0.0000 C   0  0  0  0  0  0  0  0  0  0  0  0
   10.5100  -13.0613    0.0000 C   0  0  0  0  0  0  0  0  0  0  0  0
   11.2245  -13.4738    0.0000 C   0  0  0  0  0  0  0  0  0  0  0  0
   11.9390  -13.0613    0.0000 C   0  0  0  0  0  0  0  0  0  0  0  0
   12.6534  -13.4738    0.0000 C   0  0  0  0  0  0  0  0  0  0  0  0
   13.3679  -13.0613    0.0000 C   0  0  0  0  0  0  0  0  0  0  0  0
   14.0824  -13.4738    0.0000 C   0  0  0  0  0  0  0  0  0  0  0  0
   14.7969  -13.0613    0.0000 C   0  0  0  0  0  0  0  0  0  0  0  0
   15.5113  -13.4738    0.0000 C   0  0  0  0  0  0  0  0  0  0  0  0
   16.2258  -13.0613    0.0000 S   0  0  0  0  0  0  0  0  0  0  0  0
   16.2258  -12.2363    0.0000 O   0  0  0  0  0  0  0  0  0  0  0  0
   16.9403  -13.4738    0.0000 C   0  0  0  0  0  0  0  0  0  0  0  0
   17.6547  -13.0613    0.0000 C   0  0  0  0  0  0  0  0  0  0  0  0
   18.3692  -13.4738    0.0000 C   0  0  0  0  0  0  0  0  0  0  0  0
   19.0837  -13.0613    0.0000 C   0  0  0  0  0  0  0  0  0  0  0  0
   19.7982  -13.4738    0.0000 C   0  0  0  0  0  0  0  0  0  0  0  0
   18.6712  -12.3469    0.0000 F   0  0  0  0  0  0  0  0  0  0  0  0
   19.4962  -12.3469    0.0000 F   0  0  0  0  0  0  0  0  0  0  0  0
   20.5126  -13.0613    0.0000 F   0  0  0  0  0  0  0  0  0  0  0  0
   19.7982  -14.2988    0.0000 F   0  0  0  0  0  0  0  0  0  0  0  0
   20.3815  -14.0572    0.0000 F   0  0  0  0  0  0  0  0  0  0  0  0
   10.7937   -9.9470    0.0000 O   0  0  0  0  0  0  0  0  0  0  0  0
    9.7956  -10.1738    0.0000 C   0  0  0  0  0  0  0  0  0  0  0  0
    0.0000    0.0000    0.0000 H   0  0  0  0  0  0  0  0  0  0  0  0
    0.0000    0.0000    0.0000 H   0  0  0  0  0  0  0  0  0  0  0  0
    0.0000    0.0000    0.0000 H   0  0  0  0  0  0  0  0  0  0  0  0
    0.0000    0.0000    0.0000 H   0  0  0  0  0  0  0  0  0  0  0  0
    0.0000    0.0000    0.0000 H   0  0  0  0  0  0  0  0  0  0  0  0
    0.0000    0.0000    0.0000 H   0  0  0  0  0  0  0  0  0  0  0  0
    0.0000    0.0000    0.0000 H   0  0  0  0  0  0  0  0  0  0  0  0
    0.0000    0.0000    0.0000 H   0  0  0  0  0  0  0  0  0  0  0  0
    0.0000    0.0000    0.0000 H   0  0  0  0  0  0  0  0  0  0  0  0
    0.0000    0.0000    0.0000 H   0  0  0  0  0  0  0  0  0  0  0  0
    0.0000    0.0000    0.0000 H   0  0  0  0  0  0  0  0  0  0  0  0
    0.0000    0.0000    0.0000 H   0  0  0  0  0  0  0  0  0  0  0  0
    0.0000    0.0000    0.0000 H   0  0  0  0  0  0  0  0  0  0  0  0
    0.0000    0.0000    0.0000 H   0  0  0  0  0  0  0  0  0  0  0  0
    0.0000    0.0000    0.0000 H   0  0  0  0  0  0  0  0  0  0  0  0
    0.0000    0.0000    0.0000 H   0  0  0  0  0  0  0  0  0  0  0  0
    0.0000    0.0000    0.0000 H   0  0  0  0  0  0  0  0  0  0  0  0
    0.0000    0.0000    0.0000 H   0  0  0  0  0  0  0  0  0  0  0  0
    0.0000    0.0000    0.0000 H   0  0  0  0  0  0  0  0  0  0  0  0
    0.0000    0.0000    0.0000 H   0  0  0  0  0  0  0  0  0  0  0  0
    0.0000    0.0000    0.0000 H   0  0  0  0  0  0  0  0  0  0  0  0
    0.0000    0.0000    0.0000 H   0  0  0  0  0  0  0  0  0  0  0  0
    0.0000    0.0000    0.0000 H   0  0  0  0  0  0  0  0  0  0  0  0
    0.0000    0.0000    0.0000 H   0  0  0  0  0  0  0  0  0  0  0  0
    0.0000    0.0000    0.0000 H   0  0  0  0  0  0  0  0  0  0  0  0
    0.0000    0.0000    0.0000 H   0  0  0  0  0  0  0  0  0  0  0  0
    0.0000    0.0000    0.0000 H   0  0  0  0  0  0  0  0  0  0  0  0
    0.0000    0.0000    0.0000 H   0  0  0  0  0  0  0  0  0  0  0  0
    0.0000    0.0000    0.0000 H   0  0  0  0  0  0  0  0  0  0  0  0
    0.0000    0.0000    0.0000 H   0  0  0  0  0  0  0  0  0  0  0  0
    0.0000    0.0000    0.0000 H   0  0  0  0  0  0  0  0  0  0  0  0
    0.0000    0.0000    0.0000 H   0  0  0  0  0  0  0  0  0  0  0  0
    0.0000    0.0000    0.0000 H   0  0  0  0  0  0  0  0  0  0  0  0
    0.0000    0.0000    0.0000 H   0  0  0  0  0  0  0  0  0  0  0  0
    0.0000    0.0000    0.0000 H   0  0  0  0  0  0  0  0  0  0  0  0
    0.0000    0.0000    0.0000 H   0  0  0  0  0  0  0  0  0  0  0  0
    0.0000    0.0000    0.0000 H   0  0  0  0  0  0  0  0  0  0  0  0
    0.0000    0.0000    0.0000 H   0  0  0  0  0  0  0  0  0  0  0  0
    0.0000    0.0000    0.0000 H   0  0  0  0  0  0  0  0  0  0  0  0
    0.0000    0.0000    0.0000 H   0  0  0  0  0  0  0  0  0  0  0  0
    0.0000    0.0000    0.0000 H   0  0  0  0  0  0  0  0  0  0  0  0
    0.0000    0.0000    0.0000 H   0  0  0  0  0  0  0  0  0  0  0  0
    0.0000    0.0000    0.0000 H   0  0  0  0  0  0  0  0  0  0  0  0
    0.0000    0.0000    0.0000 H   0  0  0  0  0  0  0  0  0  0  0  0
    0.0000    0.0000    0.0000 H   0  0  0  0  0  0  0  0  0  0  0  0
    0.0000    0.0000    0.0000 H   0  0  0  0  0  0  0  0  0  0  0  0
    0.0000    0.0000    0.0000 H   0  0  0  0  0  0  0  0  0  0  0  0
  1  2  2  0
  2  3  1  0
  3  4  2  0
  4  5  1  0
  1  6  1  0
  7  6  1  0
  6  5  2  0
  5  8  1  0
  8  9  1  0
  9 10  1  0
  7 12  1  0
  7 10  1  0
 10 13  1  0
 11 12  1  0
 11 14  1  0
 15 14  1  0
 14 13  1  0
 13 16  1  0
 16 17  1  0
 15 17  1  0
  3 18  1  0
  9 19  1  1
 19 20  1  0
 20 21  1  0
 21 22  1  0
 22 23  1  0
 23 24  1  0
 24 25  1  0
 25 26  1  0
 26 27  1  0
 27 28  1  0
 28 29  2  0
 28 30  1  0
 30 31  1  0
 31 32  1  0
 32 33  1  0
 33 34  1  0
 33 35  1  0
 33 36  1  0
 34 37  1  0
 34 38  1  0
 34 39  1  0
 15 40  1  1
 14 41  1  1
  1 42  1  0
  2 43  1  0
  4 44  1  0
  7 45  1  6
  8 46  1  0
  8 47  1  0
  9 48  1  0
 10 49  1  0
 11 50  1  0
 11 51  1  0
 12 52  1  0
 12 53  1  0
 13 54  1  6
 15 55  1  0
 16 56  1  0
 16 57  1  0
 17 58  1  0
 17 59  1  0
 18 60  1  0
 19 61  1  0
 19 62  1  0
 20 63  1  0
 20 64  1  0
 21 65  1  0
 21 66  1  0
 22 67  1  0
 22 68  1  0
 23 69  1  0
 23 70  1  0
 24 71  1  0
 24 72  1  0
 25 73  1  0
 25 74  1  0
 26 75  1  0
 26 76  1  0
 27 77  1  0
 27 78  1  0
 30 79  1  0
 30 80  1  0
 31 81  1  0
 31 82  1  0
 32 83  1  0
 32 84  1  0
 40 85  1  0
 41 86  1  0
 41 87  1  0
 41 88  1  0
M  END
>  <ALOGPS_LOGP>  (1) 
6.54

>  <ALOGPS_LOGS>  (1) 
-4.96

>  <ALOGPS_SOLUBILITY>  (1) 
6.72e-03 g/l

>  <DATABASE_ID>  (1) 
DB00947

>  <DATABASE_NAME>  (1) 
drugbank

>  <DRUGBANK_ID>  (1) 
DB00947

>  <DRUG_GROUPS>  (1) 
approved; investigational

>  <EXACT_MASS>  (1) 
606.316607085

>  <FORMULA>  (1) 
C32H47F5O3S

>  <GENERIC_NAME>  (1) 
Fulvestrant

>  <INCHI_IDENTIFIER>  (1) 
InChI=1S/C32H47F5O3S/c1-30-17-15-26-25-12-11-24(38)21-23(25)20-22(29(26)27(30)13-14-28(30)39)10-7-5-3-2-4-6-8-18-41(40)19-9-16-31(33,34)32(35,36)37/h11-12,21-22,26-29,38-39H,2-10,13-20H2,1H3/t22-,26-,27+,28+,29?,30+,41?/m1/s1

>  <INCHI_KEY>  (1) 
VWUXBMIQPBEWFH-LQKBAPIOSA-N

>  <JCHEM_ACCEPTOR_COUNT>  (1) 
3

>  <JCHEM_AVERAGE_POLARIZABILITY>  (1) 
65.63515097400807

>  <JCHEM_BIOAVAILABILITY>  (1) 
0

>  <JCHEM_DONOR_COUNT>  (1) 
2

>  <JCHEM_FORMAL_CHARGE>  (1) 
0

>  <JCHEM_GHOSE_FILTER>  (1) 
0

>  <JCHEM_IUPAC>  (1) 
(1S,9R,11S,14S,15S)-15-methyl-9-[9-(4,4,5,5,5-pentafluoropentanesulfinyl)nonyl]tetracyclo[8.7.0.0²,⁷.0¹¹,¹⁵]heptadeca-2,4,6-triene-5,14-diol

>  <JCHEM_LOGP>  (1) 
7.57184088

>  <JCHEM_MDDR_LIKE_RULE>  (1) 
1

>  <JCHEM_NUMBER_OF_RINGS>  (1) 
4

>  <JCHEM_PHYSIOLOGICAL_CHARGE>  (1) 
0

>  <JCHEM_PKA>  (1) 
19.377686077764185

>  <JCHEM_PKA_STRONGEST_ACIDIC>  (1) 
10.320842869407338

>  <JCHEM_PKA_STRONGEST_BASIC>  (1) 
-0.8839987606223197

>  <JCHEM_POLAR_SURFACE_AREA>  (1) 
57.53

>  <JCHEM_REFRACTIVITY>  (1) 
155.33699999999996

>  <JCHEM_ROTATABLE_BOND_COUNT>  (1) 
15

>  <JCHEM_RULE_OF_FIVE>  (1) 
0

>  <JCHEM_TRADITIONAL_IUPAC>  (1) 
faslodex(ici 182,780)

>  <JCHEM_VEBER_RULE>  (1) 
0

>  <MOLECULAR_WEIGHT>  (1) 
606.771

>  <PRODUCTS>  (1) 
Faslodex

>  <SECONDARY_ACCESSION_NUMBERS>  (1) 
APRD00654

>  <SMILES>  (1) 
[H][C@@]12CC[C@H](O)[C@@]1(C)CC[C@@]1([H])C2[C@H](CCCCCCCCCS(=O)CCCC(F)(F)C(F)(F)F)CC2=CC(O)=CC=C12

$$$$
