492
     RDKit          2D

 85 87  0  0  1  0  0  0  0  0999 V2000
    5.8714    1.5817    0.0000 P   0  0  0  0  0  0  0  0  0  0  0  0
    1.9507    0.9143    0.0000 O   0  0  0  0  0  0  0  0  0  0  0  0
    4.2305    1.7541    0.0000 O   0  0  0  0  0  0  0  0  0  0  0  0
    3.1067    1.7541    0.0000 O   0  0  0  0  0  0  0  0  0  0  0  0
    6.3564    2.2491    0.0000 O   0  0  0  0  0  0  0  0  0  0  0  0
    5.2040    2.0667    0.0000 O   0  0  0  0  0  0  0  0  0  0  0  0
    7.6618    2.8304    0.0000 O   0  0  0  0  0  0  0  0  0  0  0  0
    8.8179    1.9904    0.0000 O   0  0  0  0  0  0  0  0  0  0  0  0
    4.0811    0.3331    0.0000 N   0  0  0  0  0  0  0  0  0  0  0  0
    3.6686   -0.9366    0.0000 C   0  0  0  0  0  0  0  0  0  0  0  0
    3.6686   -1.7616    0.0000 C   0  0  0  0  0  0  0  0  0  0  0  0
    3.0011   -0.4516    0.0000 C   0  0  0  0  0  0  0  0  0  0  0  0
    4.3361   -0.4516    0.0000 C   0  0  0  0  0  0  0  0  0  0  0  0
    2.9541   -2.1741    0.0000 C   0  0  0  0  0  0  0  0  0  0  0  0
    4.3831   -2.1741    0.0000 C   0  0  0  0  0  0  0  0  0  0  0  0
    3.2561    0.3331    0.0000 C   0  0  0  0  0  0  0  0  0  0  0  0
    2.9541   -2.9991    0.0000 C   0  0  0  0  0  0  0  0  0  0  0  0
    4.3831   -2.9991    0.0000 C   0  0  0  0  0  0  0  0  0  0  0  0
    3.6686   -3.4116    0.0000 C   0  0  0  0  0  0  0  0  0  0  0  0
    4.5660    1.0005    0.0000 C   0  0  0  0  0  0  0  0  0  0  0  0
    2.7711    1.0005    0.0000 C   0  0  0  0  0  0  0  0  0  0  0  0
    5.3865    0.9143    0.0000 C   0  0  0  0  0  0  0  0  0  0  0  0
    6.5389    1.0968    0.0000 C   0  0  0  0  0  0  0  0  0  0  0  0
    6.4527    0.2763    0.0000 C   0  0  0  0  0  0  0  0  0  0  0  0
    7.1769    2.1629    0.0000 C   0  0  0  0  0  0  0  0  0  0  0  0
    7.1201   -0.2086    0.0000 C   0  0  0  0  0  0  0  0  0  0  0  0
    7.5125    1.4092    0.0000 C   0  0  0  0  0  0  0  0  0  0  0  0
    7.0339   -1.0291    0.0000 C   0  0  0  0  0  0  0  0  0  0  0  0
    7.0275    0.7418    0.0000 C   0  0  0  0  0  0  0  0  0  0  0  0
    8.3329    1.3230    0.0000 C   0  0  0  0  0  0  0  0  0  0  0  0
    7.7013   -1.5141    0.0000 C   0  0  0  0  0  0  0  0  0  0  0  0
    8.4823    2.7442    0.0000 C   0  0  0  0  0  0  0  0  0  0  0  0
    8.4551   -1.1785    0.0000 C   0  0  0  0  0  0  0  0  0  0  0  0
    7.6151   -2.3345    0.0000 C   0  0  0  0  0  0  0  0  0  0  0  0
    8.9672    3.4116    0.0000 C   0  0  0  0  0  0  0  0  0  0  0  0
    9.1225   -1.6635    0.0000 C   0  0  0  0  0  0  0  0  0  0  0  0
    8.2825   -2.8195    0.0000 C   0  0  0  0  0  0  0  0  0  0  0  0
    9.0363   -2.4839    0.0000 C   0  0  0  0  0  0  0  0  0  0  0  0
    9.7877    3.3253    0.0000 C   0  0  0  0  0  0  0  0  0  0  0  0
    0.0000    0.0000    0.0000 H   0  0  0  0  0  0  0  0  0  0  0  0
    0.0000    0.0000    0.0000 H   0  0  0  0  0  0  0  0  0  0  0  0
    0.0000    0.0000    0.0000 H   0  0  0  0  0  0  0  0  0  0  0  0
    0.0000    0.0000    0.0000 H   0  0  0  0  0  0  0  0  0  0  0  0
    0.0000    0.0000    0.0000 H   0  0  0  0  0  0  0  0  0  0  0  0
    0.0000    0.0000    0.0000 H   0  0  0  0  0  0  0  0  0  0  0  0
    0.0000    0.0000    0.0000 H   0  0  0  0  0  0  0  0  0  0  0  0
    0.0000    0.0000    0.0000 H   0  0  0  0  0  0  0  0  0  0  0  0
    0.0000    0.0000    0.0000 H   0  0  0  0  0  0  0  0  0  0  0  0
    0.0000    0.0000    0.0000 H   0  0  0  0  0  0  0  0  0  0  0  0
    0.0000    0.0000    0.0000 H   0  0  0  0  0  0  0  0  0  0  0  0
    0.0000    0.0000    0.0000 H   0  0  0  0  0  0  0  0  0  0  0  0
    0.0000    0.0000    0.0000 H   0  0  0  0  0  0  0  0  0  0  0  0
    0.0000    0.0000    0.0000 H   0  0  0  0  0  0  0  0  0  0  0  0
    0.0000    0.0000    0.0000 H   0  0  0  0  0  0  0  0  0  0  0  0
    0.0000    0.0000    0.0000 H   0  0  0  0  0  0  0  0  0  0  0  0
    0.0000    0.0000    0.0000 H   0  0  0  0  0  0  0  0  0  0  0  0
    0.0000    0.0000    0.0000 H   0  0  0  0  0  0  0  0  0  0  0  0
    0.0000    0.0000    0.0000 H   0  0  0  0  0  0  0  0  0  0  0  0
    0.0000    0.0000    0.0000 H   0  0  0  0  0  0  0  0  0  0  0  0
    0.0000    0.0000    0.0000 H   0  0  0  0  0  0  0  0  0  0  0  0
    0.0000    0.0000    0.0000 H   0  0  0  0  0  0  0  0  0  0  0  0
    0.0000    0.0000    0.0000 H   0  0  0  0  0  0  0  0  0  0  0  0
    0.0000    0.0000    0.0000 H   0  0  0  0  0  0  0  0  0  0  0  0
    0.0000    0.0000    0.0000 H   0  0  0  0  0  0  0  0  0  0  0  0
    0.0000    0.0000    0.0000 H   0  0  0  0  0  0  0  0  0  0  0  0
    0.0000    0.0000    0.0000 H   0  0  0  0  0  0  0  0  0  0  0  0
    0.0000    0.0000    0.0000 H   0  0  0  0  0  0  0  0  0  0  0  0
    0.0000    0.0000    0.0000 H   0  0  0  0  0  0  0  0  0  0  0  0
    0.0000    0.0000    0.0000 H   0  0  0  0  0  0  0  0  0  0  0  0
    0.0000    0.0000    0.0000 H   0  0  0  0  0  0  0  0  0  0  0  0
    0.0000    0.0000    0.0000 H   0  0  0  0  0  0  0  0  0  0  0  0
    0.0000    0.0000    0.0000 H   0  0  0  0  0  0  0  0  0  0  0  0
    0.0000    0.0000    0.0000 H   0  0  0  0  0  0  0  0  0  0  0  0
    0.0000    0.0000    0.0000 H   0  0  0  0  0  0  0  0  0  0  0  0
    0.0000    0.0000    0.0000 H   0  0  0  0  0  0  0  0  0  0  0  0
    0.0000    0.0000    0.0000 H   0  0  0  0  0  0  0  0  0  0  0  0
    0.0000    0.0000    0.0000 H   0  0  0  0  0  0  0  0  0  0  0  0
    0.0000    0.0000    0.0000 H   0  0  0  0  0  0  0  0  0  0  0  0
    0.0000    0.0000    0.0000 H   0  0  0  0  0  0  0  0  0  0  0  0
    0.0000    0.0000    0.0000 H   0  0  0  0  0  0  0  0  0  0  0  0
    0.0000    0.0000    0.0000 H   0  0  0  0  0  0  0  0  0  0  0  0
    0.0000    0.0000    0.0000 H   0  0  0  0  0  0  0  0  0  0  0  0
    0.0000    0.0000    0.0000 H   0  0  0  0  0  0  0  0  0  0  0  0
    0.0000    0.0000    0.0000 H   0  0  0  0  0  0  0  0  0  0  0  0
    0.0000    0.0000    0.0000 H   0  0  0  0  0  0  0  0  0  0  0  0
  1  5  1  0
  1  6  2  0
  1 22  1  0
  1 23  1  0
  2 21  1  0
  3 20  2  0
  4 21  2  0
  5 25  1  0
  7 25  1  0
  7 32  1  0
  8 32  2  0
  9 13  1  0
  9 16  1  0
  9 20  1  0
 10 11  1  6
 10 12  1  0
 10 13  1  0
 11 14  1  0
 11 15  1  0
 12 16  1  0
 14 17  1  0
 15 18  1  0
 16 21  1  1
 17 19  1  0
 18 19  1  0
 20 22  1  0
 23 24  1  0
 24 26  1  0
 25 27  1  0
 26 28  1  0
 27 29  1  0
 27 30  1  0
 28 31  1  0
 31 33  2  0
 31 34  1  0
 32 35  1  0
 33 36  1  0
 34 37  2  0
 35 39  1  0
 36 38  2  0
 37 38  1  0
  2 40  1  0
 10 41  1  0
 11 42  1  0
 12 43  1  0
 12 44  1  0
 13 45  1  0
 13 46  1  0
 14 47  1  0
 14 48  1  0
 15 49  1  0
 15 50  1  0
 16 51  1  0
 17 52  1  0
 17 53  1  0
 18 54  1  0
 18 55  1  0
 19 56  1  0
 19 57  1  0
 22 58  1  0
 22 59  1  0
 23 60  1  0
 23 61  1  0
 24 62  1  0
 24 63  1  0
 25 64  1  0
 26 65  1  0
 26 66  1  0
 27 67  1  0
 28 68  1  0
 28 69  1  0
 29 70  1  0
 29 71  1  0
 29 72  1  0
 30 73  1  0
 30 74  1  0
 30 75  1  0
 33 76  1  0
 34 77  1  0
 35 78  1  0
 35 79  1  0
 36 80  1  0
 37 81  1  0
 38 82  1  0
 39 83  1  0
 39 84  1  0
 39 85  1  0
M  END
>  <ALOGPS_LOGP>  (1) 
4.71

>  <ALOGPS_LOGS>  (1) 
-5.75

>  <ALOGPS_SOLUBILITY>  (1) 
1.01e-03 g/l

>  <DATABASE_ID>  (1) 
DB00492

>  <DATABASE_NAME>  (1) 
drugbank

>  <DRUGBANK_ID>  (1) 
DB00492

>  <DRUG_GROUPS>  (1) 
approved

>  <EXACT_MASS>  (1) 
563.301189343

>  <FORMULA>  (1) 
C30H46NO7P

>  <GENERIC_NAME>  (1) 
Fosinopril

>  <INCHI_IDENTIFIER>  (1) 
InChI=1S/C30H46NO7P/c1-4-28(33)37-30(22(2)3)38-39(36,18-12-11-15-23-13-7-5-8-14-23)21-27(32)31-20-25(19-26(31)29(34)35)24-16-9-6-10-17-24/h5,7-8,13-14,22,24-26,30H,4,6,9-12,15-21H2,1-3H3,(H,34,35)/t25-,26+,30?,39?/m1/s1

>  <INCHI_KEY>  (1) 
BIDNLKIUORFRQP-FKDWWROVSA-N

>  <INTERNATIONAL_BRANDS>  (1) 
Acecor; Monopril; Staril

>  <JCHEM_ACCEPTOR_COUNT>  (1) 
5

>  <JCHEM_AVERAGE_POLARIZABILITY>  (1) 
61.17035325610999

>  <JCHEM_BIOAVAILABILITY>  (1) 
0

>  <JCHEM_DONOR_COUNT>  (1) 
1

>  <JCHEM_FORMAL_CHARGE>  (1) 
0

>  <JCHEM_GHOSE_FILTER>  (1) 
0

>  <JCHEM_IUPAC>  (1) 
(2S,4S)-4-cyclohexyl-1-(2-{[2-methyl-1-(propanoyloxy)propoxy](4-phenylbutyl)phosphoryl}acetyl)pyrrolidine-2-carboxylic acid

>  <JCHEM_LOGP>  (1) 
5.485800000000001

>  <JCHEM_MDDR_LIKE_RULE>  (1) 
1

>  <JCHEM_NUMBER_OF_RINGS>  (1) 
3

>  <JCHEM_PHYSIOLOGICAL_CHARGE>  (1) 
-1

>  <JCHEM_PKA>  (1) 
10.381608178475936

>  <JCHEM_PKA_STRONGEST_ACIDIC>  (1) 
3.870142961809244

>  <JCHEM_PKA_STRONGEST_BASIC>  (1) 
-4.42899974084534

>  <JCHEM_POLAR_SURFACE_AREA>  (1) 
110.21

>  <JCHEM_REFRACTIVITY>  (1) 
149.11959999999996

>  <JCHEM_ROTATABLE_BOND_COUNT>  (1) 
15

>  <JCHEM_RULE_OF_FIVE>  (1) 
0

>  <JCHEM_TRADITIONAL_IUPAC>  (1) 
fosinopril

>  <JCHEM_VEBER_RULE>  (1) 
0

>  <MOLECULAR_WEIGHT>  (1) 
563.6625

>  <PRODUCTS>  (1) 
Apo-fosinopril; Ava-fosinopril; FOSINOPRIL Na; Fosinopril; Fosinopril Sodium; Fosinopril Sodium and Hydrochlorothiazide; Fosinopril Tablets; Fosinopril sodium; Fosinopril-10; Fosinopril-20; Jamp-fosinopril; Lin-fosinopril; Monopril Tab 10mg; Monopril Tab 20mg; Mylan-fosinopril; Nu-fosinopril; PHL-fosinopril; PMS-fosinopril; Ran-fosinopril; Ratio Fosinopril; Riva-fosinopril; Teva-fosinopril

>  <SALTS>  (1) 
Fosinopril Sodium

>  <SECONDARY_ACCESSION_NUMBERS>  (1) 
APRD00526

>  <SMILES>  (1) 
CCC(=O)OC(OP(=O)(CCCCC1=CC=CC=C1)CC(=O)N1C[C@@H](C[C@H]1C(O)=O)C1CCCCC1)C(C)C

$$$$
