964
     RDKit          2D

 25 26  0  0  0  0  0  0  0  0999 V2000
    1.6500    0.1653    0.0000 Cl  0  0  0  0  0  0  0  0  0  0  0  0
    4.5080    0.1653    0.0000 Cl  0  0  0  0  0  0  0  0  0  0  0  0
    3.8797    2.2233    0.0000 N   0  0  0  0  0  0  0  0  0  0  0  0
    3.0791    0.9903    0.0000 N   0  0  0  0  0  0  0  0  0  0  0  0
    4.5472    1.0672    0.0000 N   0  0  0  0  0  0  0  0  0  0  0  0
    3.0791   -2.3098    0.0000 N   0  0  0  0  0  0  0  0  0  0  0  0
    4.6868    2.3948    0.0000 C   0  0  0  0  0  0  0  0  0  0  0  0
    5.0993    1.6803    0.0000 C   0  0  0  0  0  0  0  0  0  0  0  0
    3.7935    1.4028    0.0000 C   0  0  0  0  0  0  0  0  0  0  0  0
    3.0791    0.1653    0.0000 C   0  0  0  0  0  0  0  0  0  0  0  0
    2.3645   -0.2473    0.0000 C   0  0  0  0  0  0  0  0  0  0  0  0
    3.7935   -0.2473    0.0000 C   0  0  0  0  0  0  0  0  0  0  0  0
    3.0791   -1.4848    0.0000 C   0  0  0  0  0  0  0  0  0  0  0  0
    2.3645   -1.0723    0.0000 C   0  0  0  0  0  0  0  0  0  0  0  0
    3.7935   -1.0723    0.0000 C   0  0  0  0  0  0  0  0  0  0  0  0
    0.0000    0.0000    0.0000 H   0  0  0  0  0  0  0  0  0  0  0  0
    0.0000    0.0000    0.0000 H   0  0  0  0  0  0  0  0  0  0  0  0
    0.0000    0.0000    0.0000 H   0  0  0  0  0  0  0  0  0  0  0  0
    0.0000    0.0000    0.0000 H   0  0  0  0  0  0  0  0  0  0  0  0
    0.0000    0.0000    0.0000 H   0  0  0  0  0  0  0  0  0  0  0  0
    0.0000    0.0000    0.0000 H   0  0  0  0  0  0  0  0  0  0  0  0
    0.0000    0.0000    0.0000 H   0  0  0  0  0  0  0  0  0  0  0  0
    0.0000    0.0000    0.0000 H   0  0  0  0  0  0  0  0  0  0  0  0
    0.0000    0.0000    0.0000 H   0  0  0  0  0  0  0  0  0  0  0  0
    0.0000    0.0000    0.0000 H   0  0  0  0  0  0  0  0  0  0  0  0
  1 11  1  0
  2 12  1  0
  3  7  1  0
  3  9  1  0
  4  9  1  0
  4 10  1  0
  5  8  1  0
  5  9  2  0
  6 13  1  0
  7  8  1  0
 10 11  2  0
 10 12  1  0
 11 14  1  0
 12 15  2  0
 13 14  2  0
 13 15  1  0
  3 16  1  0
  4 17  1  0
  6 18  1  0
  6 19  1  0
  7 20  1  0
  7 21  1  0
  8 22  1  0
  8 23  1  0
 14 24  1  0
 15 25  1  0
M  END
>  <ALOGPS_LOGP>  (1) 
2.14

>  <ALOGPS_LOGS>  (1) 
-2.78

>  <ALOGPS_SOLUBILITY>  (1) 
4.09e-01 g/l

>  <DATABASE_ID>  (1) 
DB00964

>  <DATABASE_NAME>  (1) 
drugbank

>  <DRUGBANK_ID>  (1) 
DB00964

>  <DRUG_GROUPS>  (1) 
approved

>  <EXACT_MASS>  (1) 
244.028251754

>  <FORMULA>  (1) 
C9H10Cl2N4

>  <GENERIC_NAME>  (1) 
Apraclonidine

>  <INCHI_IDENTIFIER>  (1) 
InChI=1S/C9H10Cl2N4/c10-6-3-5(12)4-7(11)8(6)15-9-13-1-2-14-9/h3-4H,1-2,12H2,(H2,13,14,15)

>  <INCHI_KEY>  (1) 
IEJXVRYNEISIKR-UHFFFAOYSA-N

>  <JCHEM_ACCEPTOR_COUNT>  (1) 
4

>  <JCHEM_AVERAGE_POLARIZABILITY>  (1) 
23.27230762347962

>  <JCHEM_BIOAVAILABILITY>  (1) 
1

>  <JCHEM_DONOR_COUNT>  (1) 
3

>  <JCHEM_FORMAL_CHARGE>  (1) 
0

>  <JCHEM_GHOSE_FILTER>  (1) 
1

>  <JCHEM_IUPAC>  (1) 
2,6-dichloro-N1-(4,5-dihydro-1H-imidazol-2-yl)benzene-1,4-diamine

>  <JCHEM_LOGP>  (1) 
1.6561627496666667

>  <JCHEM_MDDR_LIKE_RULE>  (1) 
0

>  <JCHEM_NUMBER_OF_RINGS>  (1) 
2

>  <JCHEM_PHYSIOLOGICAL_CHARGE>  (1) 
1

>  <JCHEM_PKA_STRONGEST_BASIC>  (1) 
8.478662277748036

>  <JCHEM_POLAR_SURFACE_AREA>  (1) 
62.44

>  <JCHEM_REFRACTIVITY>  (1) 
63.78920000000001

>  <JCHEM_ROTATABLE_BOND_COUNT>  (1) 
1

>  <JCHEM_RULE_OF_FIVE>  (1) 
1

>  <JCHEM_TRADITIONAL_IUPAC>  (1) 
apraclonidine

>  <JCHEM_VEBER_RULE>  (1) 
0

>  <MOLECULAR_WEIGHT>  (1) 
245.109

>  <PRODUCTS>  (1) 
Apraclonidine; Apraclonidine Ophthalmic; Iopidine

>  <SALTS>  (1) 
Apraclonidine Hydrochloride

>  <SECONDARY_ACCESSION_NUMBERS>  (1) 
APRD00012

>  <SMILES>  (1) 
NC1=CC(Cl)=C(NC2=NCCN2)C(Cl)=C1

>  <SYNONYMS>  (1) 
Apraclonidina; Apraclonidinum

$$$$
