
     RDKit          2D

169174  0  0  0  0  0  0  0  0999 V2000
   -7.3548   -0.3250    0.0000 S   0  0  0  0  0  0  0  0  0  0  0  0
    7.5035   -0.3807    0.0000 S   0  0  0  0  0  0  0  0  0  0  0  0
   -8.5806    1.1793    0.0000 O   0  0  0  0  0  0  0  0  0  0  0  0
    8.5807    1.1979    0.0000 O   0  0  0  0  0  0  0  0  0  0  0  0
   -8.5806    2.8323    0.0000 O   0  0  0  0  0  0  0  0  0  0  0  0
    8.5807    2.8509    0.0000 O   0  0  0  0  0  0  0  0  0  0  0  0
   -2.8602    0.3622    0.0000 O   0  0  0  0  0  0  0  0  0  0  0  0
    2.8417    0.3807    0.0000 O   0  0  0  0  0  0  0  0  0  0  0  0
   -2.8602   -1.2908    0.0000 O   0  0  0  0  0  0  0  0  0  0  0  0
    2.8417   -1.2722    0.0000 O   0  0  0  0  0  0  0  0  0  0  0  0
   -2.1359    1.5879    0.0000 O   0  0  0  0  0  0  0  0  0  0  0  0
    2.1359    1.6065    0.0000 O   0  0  0  0  0  0  0  0  0  0  0  0
   -2.8602    2.8323    0.0000 O   0  0  0  0  0  0  0  0  0  0  0  0
    2.8602    2.8509    0.0000 O   0  0  0  0  0  0  0  0  0  0  0  0
   -7.3548    0.5107    0.0000 O   0  0  0  0  0  0  0  0  0  0  0  0
    7.5405    0.4550    0.0000 O   0  0  0  0  0  0  0  0  0  0  0  0
   -8.1906   -0.3250    0.0000 O   0  0  0  0  0  0  0  0  0  0  0  0
   -6.5191   -0.3250    0.0000 O   0  0  0  0  0  0  0  0  0  0  0  0
    6.6677   -0.4179    0.0000 O   0  0  0  0  0  0  0  0  0  0  0  0
    8.3392   -0.3807    0.0000 O   0  0  0  0  0  0  0  0  0  0  0  0
   -4.9960    1.5694    0.0000 N   0  0  0  0  0  0  0  0  0  0  0  0
    4.9961    1.6065    0.0000 N   0  0  0  0  0  0  0  0  0  0  0  0
   -5.7204    1.1607    0.0000 C   0  0  0  0  0  0  0  0  0  0  0  0
    5.7204    1.1979    0.0000 C   0  0  0  0  0  0  0  0  0  0  0  0
   -6.4262    1.5879    0.0000 C   0  0  0  0  0  0  0  0  0  0  0  0
    6.4262    1.6065    0.0000 C   0  0  0  0  0  0  0  0  0  0  0  0
   -6.4262    2.4051    0.0000 C   0  0  0  0  0  0  0  0  0  0  0  0
    6.4262    2.4237    0.0000 C   0  0  0  0  0  0  0  0  0  0  0  0
   -4.9960    2.4051    0.0000 C   0  0  0  0  0  0  0  0  0  0  0  0
    4.9961    2.4422    0.0000 C   0  0  0  0  0  0  0  0  0  0  0  0
   -7.1505    1.1793    0.0000 C   0  0  0  0  0  0  0  0  0  0  0  0
    7.1505    1.1979    0.0000 C   0  0  0  0  0  0  0  0  0  0  0  0
   -5.7018    2.8137    0.0000 C   0  0  0  0  0  0  0  0  0  0  0  0
    5.7204    2.8509    0.0000 C   0  0  0  0  0  0  0  0  0  0  0  0
   -5.7204    0.3435    0.0000 C   0  0  0  0  0  0  0  0  0  0  0  0
    5.7204    0.3807    0.0000 C   0  0  0  0  0  0  0  0  0  0  0  0
   -7.8563    1.5879    0.0000 C   0  0  0  0  0  0  0  0  0  0  0  0
    7.8563    1.6065    0.0000 C   0  0  0  0  0  0  0  0  0  0  0  0
   -7.1505    2.8323    0.0000 C   0  0  0  0  0  0  0  0  0  0  0  0
    7.1505    2.8509    0.0000 C   0  0  0  0  0  0  0  0  0  0  0  0
   -7.8563    2.4051    0.0000 C   0  0  0  0  0  0  0  0  0  0  0  0
    7.8563    2.4237    0.0000 C   0  0  0  0  0  0  0  0  0  0  0  0
   -4.2902    1.9965    0.0000 C   0  0  0  0  0  0  0  0  0  0  0  0
    4.2903    2.0151    0.0000 C   0  0  0  0  0  0  0  0  0  0  0  0
   -4.9960   -0.0649    0.0000 C   0  0  0  0  0  0  0  0  0  0  0  0
    4.9961   -0.0279    0.0000 C   0  0  0  0  0  0  0  0  0  0  0  0
    4.2903    1.1979    0.0000 C   0  0  0  0  0  0  0  0  0  0  0  0
   -4.2902    1.1793    0.0000 C   0  0  0  0  0  0  0  0  0  0  0  0
   -3.5659    1.5879    0.0000 C   0  0  0  0  0  0  0  0  0  0  0  0
    3.5660    1.6065    0.0000 C   0  0  0  0  0  0  0  0  0  0  0  0
   -4.2902    0.3622    0.0000 C   0  0  0  0  0  0  0  0  0  0  0  0
    4.2903    0.3807    0.0000 C   0  0  0  0  0  0  0  0  0  0  0  0
   -4.9960   -0.8822    0.0000 C   0  0  0  0  0  0  0  0  0  0  0  0
    4.9961   -0.8636    0.0000 C   0  0  0  0  0  0  0  0  0  0  0  0
   -3.5845   -0.0649    0.0000 C   0  0  0  0  0  0  0  0  0  0  0  0
    3.5660   -0.0464    0.0000 C   0  0  0  0  0  0  0  0  0  0  0  0
   -3.5659   -0.8822    0.0000 C   0  0  0  0  0  0  0  0  0  0  0  0
    3.5660   -0.8636    0.0000 C   0  0  0  0  0  0  0  0  0  0  0  0
   -2.8602    1.9965    0.0000 C   0  0  0  0  0  0  0  0  0  0  0  0
    2.8602    2.0151    0.0000 C   0  0  0  0  0  0  0  0  0  0  0  0
   -4.2902   -1.2908    0.0000 C   0  0  0  0  0  0  0  0  0  0  0  0
    4.2903   -1.2722    0.0000 C   0  0  0  0  0  0  0  0  0  0  0  0
   -9.2864    1.5879    0.0000 C   0  0  0  0  0  0  0  0  0  0  0  0
    9.2864    1.6065    0.0000 C   0  0  0  0  0  0  0  0  0  0  0  0
   -9.2864    2.4237    0.0000 C   0  0  0  0  0  0  0  0  0  0  0  0
    9.2864    2.4422    0.0000 C   0  0  0  0  0  0  0  0  0  0  0  0
   -1.4301    1.9965    0.0000 C   0  0  0  0  0  0  0  0  0  0  0  0
    1.4301    2.0151    0.0000 C   0  0  0  0  0  0  0  0  0  0  0  0
   -2.1544   -0.0464    0.0000 C   0  0  0  0  0  0  0  0  0  0  0  0
    2.1359   -0.0279    0.0000 C   0  0  0  0  0  0  0  0  0  0  0  0
   -2.1544   -0.8822    0.0000 C   0  0  0  0  0  0  0  0  0  0  0  0
    2.1359   -0.8636    0.0000 C   0  0  0  0  0  0  0  0  0  0  0  0
   -0.7057    1.5879    0.0000 C   0  0  0  0  0  0  0  0  0  0  0  0
    0.7057    1.5879    0.0000 C   0  0  0  0  0  0  0  0  0  0  0  0
    0.0000    2.0151    0.0000 C   0  0  0  0  0  0  0  0  0  0  0  0
   -7.3362   -1.1422    0.0000 C   0  0  0  0  0  0  0  0  0  0  0  0
    7.5035   -1.1979    0.0000 C   0  0  0  0  0  0  0  0  0  0  0  0
   -6.6304   -1.5694    0.0000 C   0  0  0  0  0  0  0  0  0  0  0  0
    8.2278   -1.6065    0.0000 C   0  0  0  0  0  0  0  0  0  0  0  0
   -8.0606   -1.5694    0.0000 C   0  0  0  0  0  0  0  0  0  0  0  0
    6.7977   -1.6065    0.0000 C   0  0  0  0  0  0  0  0  0  0  0  0
   -6.6304   -2.3866    0.0000 C   0  0  0  0  0  0  0  0  0  0  0  0
    8.2278   -2.4423    0.0000 C   0  0  0  0  0  0  0  0  0  0  0  0
   -8.0606   -2.3866    0.0000 C   0  0  0  0  0  0  0  0  0  0  0  0
    6.7977   -2.4423    0.0000 C   0  0  0  0  0  0  0  0  0  0  0  0
   -7.3362   -2.8137    0.0000 C   0  0  0  0  0  0  0  0  0  0  0  0
    7.5035   -2.8509    0.0000 C   0  0  0  0  0  0  0  0  0  0  0  0
    0.0000    0.0000    0.0000 H   0  0  0  0  0  0  0  0  0  0  0  0
    0.0000    0.0000    0.0000 H   0  0  0  0  0  0  0  0  0  0  0  0
    0.0000    0.0000    0.0000 H   0  0  0  0  0  0  0  0  0  0  0  0
    0.0000    0.0000    0.0000 H   0  0  0  0  0  0  0  0  0  0  0  0
    0.0000    0.0000    0.0000 H   0  0  0  0  0  0  0  0  0  0  0  0
    0.0000    0.0000    0.0000 H   0  0  0  0  0  0  0  0  0  0  0  0
    0.0000    0.0000    0.0000 H   0  0  0  0  0  0  0  0  0  0  0  0
    0.0000    0.0000    0.0000 H   0  0  0  0  0  0  0  0  0  0  0  0
    0.0000    0.0000    0.0000 H   0  0  0  0  0  0  0  0  0  0  0  0
    0.0000    0.0000    0.0000 H   0  0  0  0  0  0  0  0  0  0  0  0
    0.0000    0.0000    0.0000 H   0  0  0  0  0  0  0  0  0  0  0  0
    0.0000    0.0000    0.0000 H   0  0  0  0  0  0  0  0  0  0  0  0
    0.0000    0.0000    0.0000 H   0  0  0  0  0  0  0  0  0  0  0  0
    0.0000    0.0000    0.0000 H   0  0  0  0  0  0  0  0  0  0  0  0
    0.0000    0.0000    0.0000 H   0  0  0  0  0  0  0  0  0  0  0  0
    0.0000    0.0000    0.0000 H   0  0  0  0  0  0  0  0  0  0  0  0
    0.0000    0.0000    0.0000 H   0  0  0  0  0  0  0  0  0  0  0  0
    0.0000    0.0000    0.0000 H   0  0  0  0  0  0  0  0  0  0  0  0
    0.0000    0.0000    0.0000 H   0  0  0  0  0  0  0  0  0  0  0  0
    0.0000    0.0000    0.0000 H   0  0  0  0  0  0  0  0  0  0  0  0
    0.0000    0.0000    0.0000 H   0  0  0  0  0  0  0  0  0  0  0  0
    0.0000    0.0000    0.0000 H   0  0  0  0  0  0  0  0  0  0  0  0
    0.0000    0.0000    0.0000 H   0  0  0  0  0  0  0  0  0  0  0  0
    0.0000    0.0000    0.0000 H   0  0  0  0  0  0  0  0  0  0  0  0
    0.0000    0.0000    0.0000 H   0  0  0  0  0  0  0  0  0  0  0  0
    0.0000    0.0000    0.0000 H   0  0  0  0  0  0  0  0  0  0  0  0
    0.0000    0.0000    0.0000 H   0  0  0  0  0  0  0  0  0  0  0  0
    0.0000    0.0000    0.0000 H   0  0  0  0  0  0  0  0  0  0  0  0
    0.0000    0.0000    0.0000 H   0  0  0  0  0  0  0  0  0  0  0  0
    0.0000    0.0000    0.0000 H   0  0  0  0  0  0  0  0  0  0  0  0
    0.0000    0.0000    0.0000 H   0  0  0  0  0  0  0  0  0  0  0  0
    0.0000    0.0000    0.0000 H   0  0  0  0  0  0  0  0  0  0  0  0
    0.0000    0.0000    0.0000 H   0  0  0  0  0  0  0  0  0  0  0  0
    0.0000    0.0000    0.0000 H   0  0  0  0  0  0  0  0  0  0  0  0
    0.0000    0.0000    0.0000 H   0  0  0  0  0  0  0  0  0  0  0  0
    0.0000    0.0000    0.0000 H   0  0  0  0  0  0  0  0  0  0  0  0
    0.0000    0.0000    0.0000 H   0  0  0  0  0  0  0  0  0  0  0  0
    0.0000    0.0000    0.0000 H   0  0  0  0  0  0  0  0  0  0  0  0
    0.0000    0.0000    0.0000 H   0  0  0  0  0  0  0  0  0  0  0  0
    0.0000    0.0000    0.0000 H   0  0  0  0  0  0  0  0  0  0  0  0
    0.0000    0.0000    0.0000 H   0  0  0  0  0  0  0  0  0  0  0  0
    0.0000    0.0000    0.0000 H   0  0  0  0  0  0  0  0  0  0  0  0
    0.0000    0.0000    0.0000 H   0  0  0  0  0  0  0  0  0  0  0  0
    0.0000    0.0000    0.0000 H   0  0  0  0  0  0  0  0  0  0  0  0
    0.0000    0.0000    0.0000 H   0  0  0  0  0  0  0  0  0  0  0  0
    0.0000    0.0000    0.0000 H   0  0  0  0  0  0  0  0  0  0  0  0
    0.0000    0.0000    0.0000 H   0  0  0  0  0  0  0  0  0  0  0  0
    0.0000    0.0000    0.0000 H   0  0  0  0  0  0  0  0  0  0  0  0
    0.0000    0.0000    0.0000 H   0  0  0  0  0  0  0  0  0  0  0  0
    0.0000    0.0000    0.0000 H   0  0  0  0  0  0  0  0  0  0  0  0
    0.0000    0.0000    0.0000 H   0  0  0  0  0  0  0  0  0  0  0  0
    0.0000    0.0000    0.0000 H   0  0  0  0  0  0  0  0  0  0  0  0
    0.0000    0.0000    0.0000 H   0  0  0  0  0  0  0  0  0  0  0  0
    0.0000    0.0000    0.0000 H   0  0  0  0  0  0  0  0  0  0  0  0
    0.0000    0.0000    0.0000 H   0  0  0  0  0  0  0  0  0  0  0  0
    0.0000    0.0000    0.0000 H   0  0  0  0  0  0  0  0  0  0  0  0
    0.0000    0.0000    0.0000 H   0  0  0  0  0  0  0  0  0  0  0  0
    0.0000    0.0000    0.0000 H   0  0  0  0  0  0  0  0  0  0  0  0
    0.0000    0.0000    0.0000 H   0  0  0  0  0  0  0  0  0  0  0  0
    0.0000    0.0000    0.0000 H   0  0  0  0  0  0  0  0  0  0  0  0
    0.0000    0.0000    0.0000 H   0  0  0  0  0  0  0  0  0  0  0  0
    0.0000    0.0000    0.0000 H   0  0  0  0  0  0  0  0  0  0  0  0
    0.0000    0.0000    0.0000 H   0  0  0  0  0  0  0  0  0  0  0  0
    0.0000    0.0000    0.0000 H   0  0  0  0  0  0  0  0  0  0  0  0
    0.0000    0.0000    0.0000 H   0  0  0  0  0  0  0  0  0  0  0  0
    0.0000    0.0000    0.0000 H   0  0  0  0  0  0  0  0  0  0  0  0
    0.0000    0.0000    0.0000 H   0  0  0  0  0  0  0  0  0  0  0  0
    0.0000    0.0000    0.0000 H   0  0  0  0  0  0  0  0  0  0  0  0
    0.0000    0.0000    0.0000 H   0  0  0  0  0  0  0  0  0  0  0  0
    0.0000    0.0000    0.0000 H   0  0  0  0  0  0  0  0  0  0  0  0
    0.0000    0.0000    0.0000 H   0  0  0  0  0  0  0  0  0  0  0  0
    0.0000    0.0000    0.0000 H   0  0  0  0  0  0  0  0  0  0  0  0
    0.0000    0.0000    0.0000 H   0  0  0  0  0  0  0  0  0  0  0  0
    0.0000    0.0000    0.0000 H   0  0  0  0  0  0  0  0  0  0  0  0
    0.0000    0.0000    0.0000 H   0  0  0  0  0  0  0  0  0  0  0  0
    0.0000    0.0000    0.0000 H   0  0  0  0  0  0  0  0  0  0  0  0
    0.0000    0.0000    0.0000 H   0  0  0  0  0  0  0  0  0  0  0  0
    0.0000    0.0000    0.0000 H   0  0  0  0  0  0  0  0  0  0  0  0
    0.0000    0.0000    0.0000 H   0  0  0  0  0  0  0  0  0  0  0  0
    0.0000    0.0000    0.0000 H   0  0  0  0  0  0  0  0  0  0  0  0
    0.0000    0.0000    0.0000 H   0  0  0  0  0  0  0  0  0  0  0  0
    0.0000    0.0000    0.0000 H   0  0  0  0  0  0  0  0  0  0  0  0
  1 15  1  0
  1 17  2  0
  1 18  2  0
  1 76  1  0
  2 16  1  0
  2 19  2  0
  2 20  2  0
  2 77  1  0
  3 37  1  0
  3 63  1  0
  4 38  1  0
  4 64  1  0
  5 41  1  0
  5 65  1  0
  6 42  1  0
  6 66  1  0
  7 55  1  0
  7 69  1  0
  8 56  1  0
  8 70  1  0
  9 57  1  0
  9 71  1  0
 10 58  1  0
 10 72  1  0
 11 59  1  0
 11 67  1  0
 12 60  1  0
 12 68  1  0
 13 59  2  0
 14 60  2  0
 21 23  1  0
 21 29  1  0
 21 43  1  0
 21 48  1  0
 22 24  1  0
 22 30  1  0
 22 44  1  0
 22 47  1  0
 23 25  1  0
 23 35  1  0
 24 26  1  0
 24 36  1  0
 25 27  2  0
 25 31  1  0
 26 28  2  0
 26 32  1  0
 27 33  1  0
 27 39  1  0
 28 34  1  0
 28 40  1  0
 29 33  1  0
 30 34  1  0
 31 37  2  0
 32 38  2  0
 35 45  1  0
 36 46  1  0
 37 41  1  0
 38 42  1  0
 39 41  2  0
 40 42  2  0
 43 49  1  0
 44 50  1  0
 45 51  2  0
 45 53  1  0
 46 52  2  0
 46 54  1  0
 49 59  1  0
 50 60  1  0
 51 55  1  0
 52 56  1  0
 53 61  2  0
 54 62  2  0
 55 57  2  0
 56 58  2  0
 57 61  1  0
 58 62  1  0
 67 73  1  0
 68 74  1  0
 73 75  1  0
 74 75  1  0
 76 78  2  0
 76 80  1  0
 77 79  2  0
 77 81  1  0
 78 82  1  0
 79 83  1  0
 80 84  2  0
 81 85  2  0
 82 86  2  0
 83 87  2  0
 84 86  1  0
 85 87  1  0
 23 88  1  0
 24 89  1  0
 29 90  1  0
 29 91  1  0
 30 92  1  0
 30 93  1  0
 31 94  1  0
 32 95  1  0
 33 96  1  0
 33 97  1  0
 34 98  1  0
 34 99  1  0
 35100  1  0
 35101  1  0
 36102  1  0
 36103  1  0
 39104  1  0
 40105  1  0
 43106  1  0
 43107  1  0
 44108  1  0
 44109  1  0
 47110  1  0
 47111  1  0
 47112  1  0
 48113  1  0
 48114  1  0
 48115  1  0
 49116  1  0
 49117  1  0
 50118  1  0
 50119  1  0
 51120  1  0
 52121  1  0
 53122  1  0
 54123  1  0
 61124  1  0
 62125  1  0
 63126  1  0
 63127  1  0
 63128  1  0
 64129  1  0
 64130  1  0
 64131  1  0
 65132  1  0
 65133  1  0
 65134  1  0
 66135  1  0
 66136  1  0
 66137  1  0
 67138  1  0
 67139  1  0
 68140  1  0
 68141  1  0
 69142  1  0
 69143  1  0
 69144  1  0
 70145  1  0
 70146  1  0
 70147  1  0
 71148  1  0
 71149  1  0
 71150  1  0
 72151  1  0
 72152  1  0
 72153  1  0
 73154  1  0
 73155  1  0
 74156  1  0
 74157  1  0
 75158  1  0
 75159  1  0
 78160  1  0
 79161  1  0
 80162  1  0
 81163  1  0
 82164  1  0
 83165  1  0
 84166  1  0
 85167  1  0
 86168  1  0
 87169  1  0
M  CHG  4  15  -1  16  -1  21   1  22   1
M  END
>  <ALOGPS_LOGP>  (1) 
3.34

>  <ALOGPS_LOGS>  (1) 
-7.47

>  <ALOGPS_SOLUBILITY>  (1) 
4.17e-05 g/l

>  <DATABASE_ID>  (1) 
DB00732

>  <DATABASE_NAME>  (1) 
drugbank

>  <DRUGBANK_ID>  (1) 
DB00732

>  <DRUG_GROUPS>  (1) 
approved

>  <EXACT_MASS>  (1) 
1242.500406156

>  <FORMULA>  (1) 
C65H82N2O18S2

>  <GENERIC_NAME>  (1) 
Atracurium besylate

>  <INCHI_IDENTIFIER>  (1) 
InChI=1S/C53H72N2O12.2C6H6O3S/c1-54(22-18-38-32-48(62-7)50(64-9)34-40(38)42(54)28-36-14-16-44(58-3)46(30-36)60-5)24-20-52(56)66-26-12-11-13-27-67-53(57)21-25-55(2)23-19-39-33-49(63-8)51(65-10)35-41(39)43(55)29-37-15-17-45(59-4)47(31-37)61-6;2*7-10(8,9)6-4-2-1-3-5-6/h14-17,30-35,42-43H,11-13,18-29H2,1-10H3;2*1-5H,(H,7,8,9)/q+2;;/p-2

>  <INCHI_KEY>  (1) 
XXZSQOVSEBAPGS-UHFFFAOYSA-L

>  <JCHEM_ACCEPTOR_COUNT>  (1) 
10

>  <JCHEM_ATOM_COUNT>  (1) 
169

>  <JCHEM_AVERAGE_POLARIZABILITY>  (1) 
104.67305300671367

>  <JCHEM_BIOAVAILABILITY>  (1) 
0

>  <JCHEM_DONOR_COUNT>  (1) 
0

>  <JCHEM_FORMAL_CHARGE>  (1) 
0

>  <JCHEM_GHOSE_FILTER>  (1) 
0

>  <JCHEM_IUPAC>  (1) 
1-[(3,4-dimethoxyphenyl)methyl]-2-[3-({5-[(3-{1-[(3,4-dimethoxyphenyl)methyl]-6,7-dimethoxy-2-methyl-1,2,3,4-tetrahydroisoquinolin-2-ium-2-yl}propanoyl)oxy]pentyl}oxy)-3-oxopropyl]-6,7-dimethoxy-2-methyl-1,2,3,4-tetrahydroisoquinolin-2-ium dibenzenesulfonate

>  <JCHEM_LOGP>  (1) 
-0.9590320619434906

>  <JCHEM_MDDR_LIKE_RULE>  (1) 
1

>  <JCHEM_NUMBER_OF_RINGS>  (1) 
8

>  <JCHEM_PHYSIOLOGICAL_CHARGE>  (1) 
2

>  <JCHEM_PKA>  (1) 
19.618566918135095

>  <JCHEM_PKA_STRONGEST_ACIDIC>  (1) 
19.01650692680713

>  <JCHEM_PKA_STRONGEST_BASIC>  (1) 
-4.114322707937125

>  <JCHEM_POLAR_SURFACE_AREA>  (1) 
126.44000000000003

>  <JCHEM_REFRACTIVITY>  (1) 
280.6771999999999

>  <JCHEM_ROTATABLE_BOND_COUNT>  (1) 
28

>  <JCHEM_RULE_OF_FIVE>  (1) 
0

>  <JCHEM_TRADITIONAL_IUPAC>  (1) 
atracurium dibenzenesulfonate

>  <JCHEM_VEBER_RULE>  (1) 
0

>  <MOLECULAR_WEIGHT>  (1) 
1243.49

>  <PRODUCTS>  (1) 
Atracurium   -  (for Single Dose ); Atracurium  -  (for Multiple Dose Vial - With Preservative); Atracurium Besylate; Atracurium Besylate Injection; Tracrium

>  <SECONDARY_ACCESSION_NUMBERS>  (1) 
APRD00806

>  <SMILES>  (1) 
[O-]S(=O)(=O)C1=CC=CC=C1.[O-]S(=O)(=O)C1=CC=CC=C1.COC1=CC2=C(C=C1OC)C(CC1=CC(OC)=C(OC)C=C1)[N+](C)(CCC(=O)OCCCCCOC(=O)CC[N+]1(C)CCC3=C(C=C(OC)C(OC)=C3)C1CC1=CC(OC)=C(OC)C=C1)CC2

>  <SYNONYMS>  (1) 
Atracurium besilate; Atracurium dibesylate

$$$$
