
     RDKit          2D

 53 56  0  0  1  0  0  0  0  0999 V2000
    9.1461   -3.4366    0.0000 C   0  0  0  0  0  0  0  0  0  0  0  0
    7.7172   -5.9117    0.0000 N   0  0  0  0  0  0  0  0  0  0  0  0
    7.0027   -4.6741    0.0000 C   0  0  0  0  0  0  0  0  0  0  0  0
    7.0027   -3.8491    0.0000 C   0  0  0  0  0  0  0  0  0  0  0  0
    7.7172   -5.0866    0.0000 C   0  0  0  0  0  0  0  0  0  0  0  0
    6.2882   -5.0866    0.0000 C   0  0  0  0  0  0  0  0  0  0  0  0
    6.2882   -3.4366    0.0000 C   0  0  0  0  0  0  0  0  0  0  0  0
    7.7172   -3.4366    0.0000 C   0  0  0  0  0  0  0  0  0  0  0  0
    7.0027   -3.0241    0.0000 O   0  0  0  0  0  0  0  0  0  0  0  0
    8.4316   -4.6741    0.0000 C   0  0  0  0  0  0  0  0  0  0  0  0
    5.5737   -4.6741    0.0000 C   0  0  0  0  0  0  0  0  0  0  0  0
    5.5737   -3.8491    0.0000 C   0  0  0  0  0  0  0  0  0  0  0  0
    6.2882   -2.6116    0.0000 O   0  0  0  0  0  0  0  0  0  0  0  0
    8.4316   -3.8491    0.0000 C   0  0  0  0  0  0  0  0  0  0  0  0
    7.7172   -2.6116    0.0000 O   0  0  0  0  0  0  0  0  0  0  0  0
    9.1461   -5.0866    0.0000 O   0  0  0  0  0  0  0  0  0  0  0  0
    4.8592   -5.0866    0.0000 C   0  0  0  0  0  0  0  0  0  0  0  0
    4.8592   -3.4366    0.0000 C   0  0  0  0  0  0  0  0  0  0  0  0
    4.1447   -4.6741    0.0000 C   0  0  0  0  0  0  0  0  0  0  0  0
    4.8592   -5.9117    0.0000 O   0  0  0  0  0  0  0  0  0  0  0  0
    4.1447   -3.8491    0.0000 C   0  0  0  0  0  0  0  0  0  0  0  0
    4.8592   -2.6116    0.0000 O   0  0  0  0  0  0  0  0  0  0  0  0
    3.4303   -5.0866    0.0000 C   0  0  0  0  0  0  0  0  0  0  0  0
    3.4303   -3.4366    0.0000 C   0  0  0  0  0  0  0  0  0  0  0  0
    2.7158   -4.6741    0.0000 C   0  0  0  0  0  0  0  0  0  0  0  0
    3.4303   -5.9117    0.0000 Cl  0  0  0  0  0  0  0  0  0  0  0  0
    2.7158   -3.8491    0.0000 C   0  0  0  0  0  0  0  0  0  0  0  0
    3.4303   -2.6116    0.0000 O   0  0  0  0  0  0  0  0  0  0  0  0
    8.4316   -6.3242    0.0000 C   0  0  0  0  0  0  0  0  0  0  0  0
    7.0027   -6.3242    0.0000 C   0  0  0  0  0  0  0  0  0  0  0  0
    9.1461   -2.6116    0.0000 O   0  0  0  0  0  0  0  0  0  0  0  0
    9.8606   -3.8491    0.0000 N   0  0  0  0  0  0  0  0  0  0  0  0
    0.0000    0.0000    0.0000 H   0  0  0  0  0  0  0  0  0  0  0  0
    0.0000    0.0000    0.0000 H   0  0  0  0  0  0  0  0  0  0  0  0
    0.0000    0.0000    0.0000 H   0  0  0  0  0  0  0  0  0  0  0  0
    0.0000    0.0000    0.0000 H   0  0  0  0  0  0  0  0  0  0  0  0
    0.0000    0.0000    0.0000 H   0  0  0  0  0  0  0  0  0  0  0  0
    0.0000    0.0000    0.0000 H   0  0  0  0  0  0  0  0  0  0  0  0
    0.0000    0.0000    0.0000 H   0  0  0  0  0  0  0  0  0  0  0  0
    0.0000    0.0000    0.0000 H   0  0  0  0  0  0  0  0  0  0  0  0
    0.0000    0.0000    0.0000 H   0  0  0  0  0  0  0  0  0  0  0  0
    0.0000    0.0000    0.0000 H   0  0  0  0  0  0  0  0  0  0  0  0
    0.0000    0.0000    0.0000 H   0  0  0  0  0  0  0  0  0  0  0  0
    0.0000    0.0000    0.0000 H   0  0  0  0  0  0  0  0  0  0  0  0
    0.0000    0.0000    0.0000 H   0  0  0  0  0  0  0  0  0  0  0  0
    0.0000    0.0000    0.0000 H   0  0  0  0  0  0  0  0  0  0  0  0
    0.0000    0.0000    0.0000 H   0  0  0  0  0  0  0  0  0  0  0  0
    0.0000    0.0000    0.0000 H   0  0  0  0  0  0  0  0  0  0  0  0
    0.0000    0.0000    0.0000 H   0  0  0  0  0  0  0  0  0  0  0  0
    0.0000    0.0000    0.0000 H   0  0  0  0  0  0  0  0  0  0  0  0
    0.0000    0.0000    0.0000 H   0  0  0  0  0  0  0  0  0  0  0  0
    0.0000    0.0000    0.0000 H   0  0  0  0  0  0  0  0  0  0  0  0
    0.0000    0.0000    0.0000 H   0  0  0  0  0  0  0  0  0  0  0  0
 12 18  1  0
 17 19  1  0
 17 20  1  1
 18 21  1  0
 18 22  2  0
 19 23  2  0
 21 24  2  0
 23 25  1  0
 23 26  1  0
 24 27  1  0
 24 28  1  0
 10 14  2  0
 11 12  1  0
 19 21  1  0
 25 27  2  0
  3  4  1  0
  3  5  1  0
  3  6  1  0
  4  7  1  0
  4  8  1  0
  4  9  1  1
  5 10  1  0
  6 11  1  0
  7 12  2  0
  7 13  1  0
  8 14  1  0
  8 15  2  0
 10 16  1  0
 11 17  1  0
  5  2  1  6
 14  1  1  0
  2 29  1  0
  2 30  1  0
  1 31  2  0
  1 32  1  0
  3 33  1  1
  5 34  1  0
  6 35  1  0
  6 36  1  0
  9 37  1  0
 11 38  1  1
 13 39  1  0
 16 40  1  0
 17 41  1  0
 20 42  1  0
 25 43  1  0
 27 44  1  0
 28 45  1  0
 29 46  1  0
 29 47  1  0
 29 48  1  0
 30 49  1  0
 30 50  1  0
 30 51  1  0
 32 52  1  0
 32 53  1  0
M  END
>  <ALOGPS_LOGP>  (1) 
-0.40

>  <ALOGPS_LOGS>  (1) 
-2.94

>  <ALOGPS_SOLUBILITY>  (1) 
5.30e-01 g/l

>  <DATABASE_ID>  (1) 
DB00618

>  <DATABASE_NAME>  (1) 
drugbank

>  <DRUGBANK_ID>  (1) 
DB00618

>  <DRUG_GROUPS>  (1) 
approved

>  <EXACT_MASS>  (1) 
464.098643365

>  <FORMULA>  (1) 
C21H21ClN2O8

>  <GENERIC_NAME>  (1) 
Demeclocycline

>  <INCHI_IDENTIFIER>  (1) 
InChI=1S/C21H21ClN2O8/c1-24(2)14-7-5-6-10(16(27)12-9(25)4-3-8(22)11(12)15(6)26)18(29)21(7,32)19(30)13(17(14)28)20(23)31/h3-4,6-7,14-15,25-26,28-29,32H,5H2,1-2H3,(H2,23,31)/t6-,7-,14-,15-,21-/m0/s1

>  <INCHI_KEY>  (1) 
FMTDIUIBLCQGJB-SEYHBJAFSA-N

>  <INTERNATIONAL_BRANDS>  (1) 
Declostatin; Ledermycin

>  <JCHEM_ACCEPTOR_COUNT>  (1) 
9

>  <JCHEM_AVERAGE_POLARIZABILITY>  (1) 
43.79661192444991

>  <JCHEM_BIOAVAILABILITY>  (1) 
1

>  <JCHEM_DONOR_COUNT>  (1) 
6

>  <JCHEM_FORMAL_CHARGE>  (1) 
0

>  <JCHEM_GHOSE_FILTER>  (1) 
0

>  <JCHEM_IUPAC>  (1) 
(4S,4aS,5aS,6S,12aS)-7-chloro-4-(dimethylamino)-3,6,10,12,12a-pentahydroxy-1,11-dioxo-1,4,4a,5,5a,6,11,12a-octahydrotetracene-2-carboxamide

>  <JCHEM_LOGP>  (1) 
-3.234198232678034

>  <JCHEM_MDDR_LIKE_RULE>  (1) 
0

>  <JCHEM_NUMBER_OF_RINGS>  (1) 
4

>  <JCHEM_PHYSIOLOGICAL_CHARGE>  (1) 
-1

>  <JCHEM_PKA>  (1) 
4.345393447608253

>  <JCHEM_PKA_STRONGEST_ACIDIC>  (1) 
-2.5592184196272365

>  <JCHEM_PKA_STRONGEST_BASIC>  (1) 
8.230179346707681

>  <JCHEM_POLAR_SURFACE_AREA>  (1) 
181.62

>  <JCHEM_REFRACTIVITY>  (1) 
114.35489999999994

>  <JCHEM_ROTATABLE_BOND_COUNT>  (1) 
2

>  <JCHEM_RULE_OF_FIVE>  (1) 
0

>  <JCHEM_TRADITIONAL_IUPAC>  (1) 
demeclocycline

>  <JCHEM_VEBER_RULE>  (1) 
0

>  <MOLECULAR_WEIGHT>  (1) 
464.853

>  <PRODUCTS>  (1) 
Declomycin; Declomycin - Tab 300mg; Declomycin Tab 150mg; Declomycin Tab 300mg; Demeclocycline Hydrochloride

>  <SALTS>  (1) 
Demeclocycline hydrochloride

>  <SECONDARY_ACCESSION_NUMBERS>  (1) 
APRD00272

>  <SMILES>  (1) 
[H][C@]12C[C@@]3([H])[C@H](N(C)C)C(O)=C(C(N)=O)C(=O)[C@@]3(O)C(O)=C1C(=O)C1=C([C@H]2O)C(Cl)=CC=C1O

>  <SYNONYMS>  (1) 
6-Demethyl-7-chlorotetracycline; 7-Chloro-6-demethyltetracycline; Demeclociclina; Demeclocycline; Demeclocyclinum; Demethylchlortetracyclin; Demethylchlortetracycline; DMCT; DMCTC

$$$$
