525
     RDKit          2D

 39 41  0  0  0  0  0  0  0  0999 V2000
    5.2224    0.8107    0.0000 S   0  0  0  0  0  0  0  0  0  0  0  0
    5.9370   -0.4268    0.0000 O   0  0  0  0  0  0  0  0  0  0  0  0
    4.5080   -0.4268    0.0000 N   0  0  0  0  0  0  0  0  0  0  0  0
    8.0804   -0.0143    0.0000 C   0  0  0  0  0  0  0  0  0  0  0  0
    8.0804    0.8107    0.0000 C   0  0  0  0  0  0  0  0  0  0  0  0
    3.7935   -0.0143    0.0000 C   0  0  0  0  0  0  0  0  0  0  0  0
    6.6515   -0.0143    0.0000 C   0  0  0  0  0  0  0  0  0  0  0  0
    7.3659   -0.4268    0.0000 C   0  0  0  0  0  0  0  0  0  0  0  0
    3.0791   -0.4268    0.0000 C   0  0  0  0  0  0  0  0  0  0  0  0
    2.3645   -0.0143    0.0000 C   0  0  0  0  0  0  0  0  0  0  0  0
    7.3659    1.2233    0.0000 C   0  0  0  0  0  0  0  0  0  0  0  0
    6.6515    0.8107    0.0000 C   0  0  0  0  0  0  0  0  0  0  0  0
    8.8180   -0.4554    0.0000 C   0  0  0  0  0  0  0  0  0  0  0  0
    3.7935    0.8107    0.0000 C   0  0  0  0  0  0  0  0  0  0  0  0
    8.8180    1.2518    0.0000 C   0  0  0  0  0  0  0  0  0  0  0  0
    5.2224   -0.0143    0.0000 C   0  0  0  0  0  0  0  0  0  0  0  0
    2.3645    0.8107    0.0000 C   0  0  0  0  0  0  0  0  0  0  0  0
    3.0791    1.2233    0.0000 C   0  0  0  0  0  0  0  0  0  0  0  0
    4.5080   -1.2518    0.0000 C   0  0  0  0  0  0  0  0  0  0  0  0
    9.5654   -0.0314    0.0000 C   0  0  0  0  0  0  0  0  0  0  0  0
    9.5654    0.8279    0.0000 C   0  0  0  0  0  0  0  0  0  0  0  0
    1.6500   -0.4268    0.0000 C   0  0  0  0  0  0  0  0  0  0  0  0
    0.0000    0.0000    0.0000 H   0  0  0  0  0  0  0  0  0  0  0  0
    0.0000    0.0000    0.0000 H   0  0  0  0  0  0  0  0  0  0  0  0
    0.0000    0.0000    0.0000 H   0  0  0  0  0  0  0  0  0  0  0  0
    0.0000    0.0000    0.0000 H   0  0  0  0  0  0  0  0  0  0  0  0
    0.0000    0.0000    0.0000 H   0  0  0  0  0  0  0  0  0  0  0  0
    0.0000    0.0000    0.0000 H   0  0  0  0  0  0  0  0  0  0  0  0
    0.0000    0.0000    0.0000 H   0  0  0  0  0  0  0  0  0  0  0  0
    0.0000    0.0000    0.0000 H   0  0  0  0  0  0  0  0  0  0  0  0
    0.0000    0.0000    0.0000 H   0  0  0  0  0  0  0  0  0  0  0  0
    0.0000    0.0000    0.0000 H   0  0  0  0  0  0  0  0  0  0  0  0
    0.0000    0.0000    0.0000 H   0  0  0  0  0  0  0  0  0  0  0  0
    0.0000    0.0000    0.0000 H   0  0  0  0  0  0  0  0  0  0  0  0
    0.0000    0.0000    0.0000 H   0  0  0  0  0  0  0  0  0  0  0  0
    0.0000    0.0000    0.0000 H   0  0  0  0  0  0  0  0  0  0  0  0
    0.0000    0.0000    0.0000 H   0  0  0  0  0  0  0  0  0  0  0  0
    0.0000    0.0000    0.0000 H   0  0  0  0  0  0  0  0  0  0  0  0
    0.0000    0.0000    0.0000 H   0  0  0  0  0  0  0  0  0  0  0  0
  1 16  2  0
  2  7  1  0
  2 16  1  0
  3  6  1  0
  3 16  1  0
  3 19  1  0
  4  5  1  0
  4  8  2  0
  4 13  1  0
  5 11  2  0
  5 15  1  0
  6  9  2  0
  6 14  1  0
  7  8  1  0
  7 12  2  0
  9 10  1  0
 10 17  2  0
 10 22  1  0
 11 12  1  0
 13 20  2  0
 14 18  2  0
 15 21  2  0
 17 18  1  0
 20 21  1  0
  8 23  1  0
  9 24  1  0
 11 25  1  0
 12 26  1  0
 13 27  1  0
 14 28  1  0
 15 29  1  0
 17 30  1  0
 18 31  1  0
 19 32  1  0
 19 33  1  0
 19 34  1  0
 20 35  1  0
 21 36  1  0
 22 37  1  0
 22 38  1  0
 22 39  1  0
M  END
>  <ALOGPS_LOGP>  (1) 
4.87

>  <ALOGPS_LOGS>  (1) 
-5.75

>  <ALOGPS_SOLUBILITY>  (1) 
5.46e-04 g/l

>  <DATABASE_ID>  (1) 
DB00525

>  <DATABASE_NAME>  (1) 
drugbank

>  <DRUGBANK_ID>  (1) 
DB00525

>  <DRUG_GROUPS>  (1) 
approved; vet_approved

>  <EXACT_MASS>  (1) 
307.103084861

>  <FORMULA>  (1) 
C19H17NOS

>  <GENERIC_NAME>  (1) 
Tolnaftate

>  <INCHI_IDENTIFIER>  (1) 
InChI=1S/C19H17NOS/c1-14-6-5-9-17(12-14)20(2)19(22)21-18-11-10-15-7-3-4-8-16(15)13-18/h3-13H,1-2H3

>  <INCHI_KEY>  (1) 
FUSNMLFNXJSCDI-UHFFFAOYSA-N

>  <INTERNATIONAL_BRANDS>  (1) 
Aftate; Dr. Scholl's athlete's foot spray; Genaspor; Lamisil AF; NP-27; Odor Eaters; Pitrex; Separin; Tinaderm

>  <JCHEM_ACCEPTOR_COUNT>  (1) 
1

>  <JCHEM_AVERAGE_POLARIZABILITY>  (1) 
34.22480822617392

>  <JCHEM_BIOAVAILABILITY>  (1) 
1

>  <JCHEM_DONOR_COUNT>  (1) 
0

>  <JCHEM_FORMAL_CHARGE>  (1) 
0

>  <JCHEM_GHOSE_FILTER>  (1) 
0

>  <JCHEM_IUPAC>  (1) 
N-methyl-N-(3-methylphenyl)-1-(naphthalen-2-yloxy)methanethioamide

>  <JCHEM_LOGP>  (1) 
5.745039567000001

>  <JCHEM_MDDR_LIKE_RULE>  (1) 
0

>  <JCHEM_NUMBER_OF_RINGS>  (1) 
3

>  <JCHEM_PHYSIOLOGICAL_CHARGE>  (1) 
0

>  <JCHEM_PKA_STRONGEST_BASIC>  (1) 
0.07504048749554171

>  <JCHEM_POLAR_SURFACE_AREA>  (1) 
12.47

>  <JCHEM_REFRACTIVITY>  (1) 
94.92040000000004

>  <JCHEM_ROTATABLE_BOND_COUNT>  (1) 
3

>  <JCHEM_RULE_OF_FIVE>  (1) 
0

>  <JCHEM_TRADITIONAL_IUPAC>  (1) 
tolnaftate

>  <JCHEM_VEBER_RULE>  (1) 
1

>  <MOLECULAR_WEIGHT>  (1) 
307.409

>  <PRODUCTS>  (1) 
Absorbine Antifungal Powder 1%; Absorbine Jr Antifungal Liq; Absorbine Jr Antifungal Liquid; Aftate Athlete Foot Cream; Anti-Fungal; Antifungal; Antifungal Cream; Antifungal Foot Care; Athlete's Foot Gel 1%; Athlete's Foot Spray Power; Athletes Foot; Athletes Foot Antifungal; Athletes Foot Medicated Antifungal; Athletes Foot Quinsana; Athletes Foot Spray Dr. Foot; Atopalm Tolnaftate Antifungal; Avon Foot Works Therapeutic Antifungal Foot Cream; Avon Footworks Antifungal Foot Spray; Avon Footworks Antifungal and Deodorant Powder; Barielle Fungus Rx Maximum Strength Anti-Fungal; Barielle Professional Maximum Strength Fungus Rx Antifungal PRO; Bengama Antifungal; Bio-Scriptives Extreme AF; Blistex Odor-Eaters Powder; CAREALL Tolnaftate; CIDACIN Antifungal Treatment; CLARUS Antifungal; CVS Athletes Foot Cream .5oz; CVS Health Antifungal Anthletes Foot; Canesten Powder; Conazol antifungal; Cvs Athletes Foot Tolnaftate; DG Health Athletes Foot; Defense Antifungal Medicated Bar; Dg Athletes Foot; Dr CANUSO fungal nail eraser; Dr. Canuso foot repair serum; Dr. Gs Clear Nail; Dr. Scholl's Athlete's Foot Powder - 1%; Dr. Scholl's Athlete's Foot Spray Powder; Dr. Scholls Odor-X Foot and Sneaker; Equaline Athletes Foot; Equaline Tolnaftate Antifungal; Equate Athletes Foot; Equate Athletes Foot Powder; Equate Liquid Foot; Ez Clear; Family Care Tolnaftate; Family Wellness Antifungal; First Aid Antifungal Medicated Cream 0.5 oz; First Aid Antifungal Medicated Cream 1oz; Flexitol Medicated Anti-fungal Cream; Flexitol Medicated Foot; Foot Care Foam; Foot Works Healthy Antifungal; Footlogix Anti Fungal Mousse Formula; Footshield Plus; Footworks Healthy Antifungal Powder for Athlete's Foot; Footworks Healthy Antifungal Spray for Athlete's Foot; Formucare Athletes Foot Maximum Strength; Formula 3; Forticept Antifungal Balm; FungaBlend 10; FungiFoam; Fungicure; Fungicure Anti-fungal Pump Spray; Fungicure Athlete's Foot Cream; Fungicure Athletes Foot; Fungicure Gel; Fungisolve Tolnaftate Antifungal; Fungoid-D; Fungus Md; Fungus Relief; Gadaderm Antifungal; Good Neighbor Pharmacy Athletes foot relief; Good Neighbor Pharmacy Maximum Strength Athletes Foot Relief Antifungal; Good Neighbor Pharmacy athletes foot relief; Good Sense Athletes Foot; Good Sense Jock Itch; GoodSense Athletes Foot Antifungal; GoodSense Powder Jock Itch Antifungal; Healthy Accents athletes foot antifungal; Heeltastic; Hi Vetic; HomeHealth Antifungal; Hongo Killer; Hongo Killer Antifungal; Hongosan Dsp; Joch Itch Antifungal Quinsana; Jock Itch; Jock Itch Relief; Kaiser Permanente Tolnaftate; Keractil Plus; Kiss Fungi-Gone Anti-fungal Treatment; Lamisl AF Defense; Leader Antifungal Tolnaftate; Leader Medicated; Meijer Antifungal; Meijer Maximum Strength Anthletes foot Antifungal; Meijer Maximum Strength Athletes Foot Antifungal; Meijer Maximum Strength Jock Itch Relief Antifungal; Meijer Tolnaftate; Miracle Plus Anti-Fungal; Miracle Plus Anti-Fungal Foot Relief; Molecular AF; Nail Active Daytime Anti-fungal; Nail MD; Nail Renew; Nailene Antifungal Treatment; Natural Fusion Anti-fungal Medi-Gel; Natureplex Tolnaftate Antifungal; Odor Eaters Foot and Sneaker; Odor-eaters; Ongo - Fin; Personal Care Antifungal; Pitrex Crm 1%; Premier Value Tolnaftate Antifungal; ProClearz Fungi-Cide PM; ProClearz Maximum Strength Anti-fungal Pen; ProClearz Maximum Strength Fungal Shield Brush-on Antifungal; Proclearz Anti-fungal Pen; Proclearz Antifungal Liquid; Proclearz Maximum Strength Fungal Shield Brush-ON Antifungal; Quality Choice Tolnaftate Antifungal; Sanafitil; Sanafitil Crema; Signature Athletes Foot Antifungal; Signature Black Bottle Tea Tree Antifungal Foot and Body Wash; Signature Care Antifungal; Signature Care Athletes Foot; Signature Care Athletes Foot Antifungal; Signature Care Athletes foot; Smart Sense Athletes Foot; Smart Sense Athletes Foot Relief; Smart Sense Tolnaftate Antifungal; Smart Sense Tolnftate Antifungal; SmartSense Maximum Strength Athletes Foot Relief antifungal; Snap Stiks Athlete's Foot Relief Swabs With Tolnaftate; Snap-stiks Senior's Foot Fungus Relief Swabs With Tolnaftate; SoundBody Tolnaftate Antifungal; Sunmark Antifungal; Sunmark athletes foot liquid spray; Sunmark athletes foot powder; Swabplus Athlete's Foot Relief Swabs With Tolnaftate; Swabplus Fungus Relief Swabs With Tolnaftate; Target antifungal; Tinactin; Tinactin Aerosol Powder; Tinactin Antifungal; Tinactin Chill Deodorant Powder Spray; Tinactin Chill Liquid Spray; Tinactin Jock Itch Crm 10mg/gm; Tinactin Jock Itch Top Aer Pwr 10mg/gm; Tinactin Liquid Aerosol 0.72mg/gm; Tinactin Plus Areosol Powder 1%; Tinactin Plus Powder 1%; Tinactin Powder; Tinactin Pump Spray; Tinactin Sol 10mg/ml; Tinactin Super Absorbent; Tineacide; Ting; Tolcylen Antifungal Cream; Tolnafate; Tolnaftate; Tolnaftate Antifungal; Tolnaftate Antifungal Cream; Tolnaftate Cream 1%; Tolnaftate Cream 1% ANTIFUNGAL; Tolnaftate Cream USP 1% for Athlete's Foot; Tolnaftate Cream USP, 1%; Tolnaftate D; TopCare Tolnaftate Antifungal; Up and Up Antifungal; Up and Up Soothing Antifungal; Villimed Antifungal; Walgreens Maximum Strength Jock Itch Antifungal; Walgreens Medicated Antifungal Athletes Foot; Walgreens Tolnaftate; Western Family Antifungal; Wick Storm Tea Tree Antifungal Foot Body Wash; Winco Foods Tolnaftate; Woodwards Mycocide Clinical NS; XtraCare Antifungal Foot; Zeasorb AF; fulton street market Athletes Foot

>  <SECONDARY_ACCESSION_NUMBERS>  (1) 
APRD01607

>  <SMILES>  (1) 
CN(C(=S)OC1=CC2=CC=CC=C2C=C1)C1=CC=CC(C)=C1

>  <SYNONYMS>  (1) 
Tolnaftato; Tolnaftatum

$$$$
