720
     RDKit          2D

 15 14  0  0  0  0  0  0  0  0999 V2000
    2.8760    0.5977    0.0000 Cl  0  0  0  0  0  0  0  0  0  0  0  0
    3.7010   -0.8312    0.0000 Cl  0  0  0  0  0  0  0  0  0  0  0  0
    4.0031    0.2958    0.0000 P   0  0  0  0  0  0  0  0  0  0  0  0
    2.5741   -0.5292    0.0000 P   0  0  0  0  0  0  0  0  0  0  0  0
    4.7175    0.7083    0.0000 O   0  0  0  0  0  0  0  0  0  0  0  0
    3.5906    1.0102    0.0000 O   0  0  0  0  0  0  0  0  0  0  0  0
    1.8596   -0.9418    0.0000 O   0  0  0  0  0  0  0  0  0  0  0  0
    2.1615    0.1852    0.0000 O   0  0  0  0  0  0  0  0  0  0  0  0
    4.4156   -0.4187    0.0000 O   0  0  0  0  0  0  0  0  0  0  0  0
    2.9866   -1.2437    0.0000 O   0  0  0  0  0  0  0  0  0  0  0  0
    3.2885   -0.1167    0.0000 C   0  0  0  0  0  0  0  0  0  0  0  0
    0.0000    0.0000    0.0000 H   0  0  0  0  0  0  0  0  0  0  0  0
    0.0000    0.0000    0.0000 H   0  0  0  0  0  0  0  0  0  0  0  0
    0.0000    0.0000    0.0000 H   0  0  0  0  0  0  0  0  0  0  0  0
    0.0000    0.0000    0.0000 H   0  0  0  0  0  0  0  0  0  0  0  0
  1 11  1  0
  2 11  1  0
  3  5  1  0
  3  6  1  0
  3  9  2  0
  3 11  1  0
  4  7  1  0
  4  8  1  0
  4 10  2  0
  4 11  1  0
  5 12  1  0
  6 13  1  0
  7 14  1  0
  8 15  1  0
M  END
>  <ALOGPS_LOGP>  (1) 
0.16

>  <ALOGPS_LOGS>  (1) 
-1.52

>  <ALOGPS_SOLUBILITY>  (1) 
7.47e+00 g/l

>  <DATABASE_ID>  (1) 
DB00720

>  <DATABASE_NAME>  (1) 
drugbank

>  <DRUGBANK_ID>  (1) 
DB00720

>  <DRUG_GROUPS>  (1) 
approved; investigational; vet_approved

>  <EXACT_MASS>  (1) 
243.886016298

>  <FORMULA>  (1) 
CH4Cl2O6P2

>  <GENERIC_NAME>  (1) 
Clodronic Acid

>  <INCHI_IDENTIFIER>  (1) 
InChI=1S/CH4Cl2O6P2/c2-1(3,10(4,5)6)11(7,8)9/h(H2,4,5,6)(H2,7,8,9)

>  <INCHI_KEY>  (1) 
ACSIXWWBWUQEHA-UHFFFAOYSA-N

>  <INTERNATIONAL_BRANDS>  (1) 
Lodronat; Loron; Lytos; Ostac; Sindronat

>  <JCHEM_ACCEPTOR_COUNT>  (1) 
6

>  <JCHEM_AVERAGE_POLARIZABILITY>  (1) 
15.295152638978966

>  <JCHEM_BIOAVAILABILITY>  (1) 
1

>  <JCHEM_DONOR_COUNT>  (1) 
4

>  <JCHEM_FORMAL_CHARGE>  (1) 
0

>  <JCHEM_GHOSE_FILTER>  (1) 
0

>  <JCHEM_IUPAC>  (1) 
[dichloro(phosphono)methyl]phosphonic acid

>  <JCHEM_LOGP>  (1) 
-0.06669455533333335

>  <JCHEM_MDDR_LIKE_RULE>  (1) 
0

>  <JCHEM_NUMBER_OF_RINGS>  (1) 
0

>  <JCHEM_PHYSIOLOGICAL_CHARGE>  (1) 
-2

>  <JCHEM_PKA>  (1) 
1.3807016226800877

>  <JCHEM_PKA_STRONGEST_ACIDIC>  (1) 
0.6193091569714033

>  <JCHEM_POLAR_SURFACE_AREA>  (1) 
115.06

>  <JCHEM_REFRACTIVITY>  (1) 
38.2136

>  <JCHEM_ROTATABLE_BOND_COUNT>  (1) 
2

>  <JCHEM_RULE_OF_FIVE>  (1) 
1

>  <JCHEM_TRADITIONAL_IUPAC>  (1) 
clodronate

>  <JCHEM_VEBER_RULE>  (1) 
0

>  <MOLECULAR_WEIGHT>  (1) 
244.892

>  <PRODUCTS>  (1) 
Bonefos; Clasteon; Ostac Cap 400mg

>  <SALTS>  (1) 
Clodronate disodium; Clodronate disodium tetrahydrate

>  <SECONDARY_ACCESSION_NUMBERS>  (1) 
APRD00639

>  <SMILES>  (1) 
OP(O)(=O)C(Cl)(Cl)P(O)(O)=O

>  <SYNONYMS>  (1) 
Acide Clodronique; Acido Clodronico; Acidum Clodronicum; Clodrons√§ure; Dichloromethylidene diphosphonate

$$$$
