
     RDKit          2D

 45 49  0  0  0  0  0  0  0  0999 V2000
    0.8739    0.8456    0.0000 C   0  0  0  0  0  0  0  0  0  0  0  0
    1.5752    0.4331    0.0000 N   0  0  0  0  0  0  0  0  0  0  0  0
    0.8739    1.6706    0.0000 C   0  0  0  0  0  0  0  0  0  0  0  0
    0.1315    0.4331    0.0000 N   0  0  0  0  0  0  0  0  0  0  0  0
    1.5752   -0.3918    0.0000 C   0  0  0  0  0  0  0  0  0  0  0  0
    2.2765    0.8456    0.0000 C   0  0  0  0  0  0  0  0  0  0  0  0
    1.5339    2.0832    0.0000 C   0  0  0  0  0  0  0  0  0  0  0  0
    0.1315    2.0832    0.0000 C   0  0  0  0  0  0  0  0  0  0  0  0
   -0.5698    0.8456    0.0000 C   0  0  0  0  0  0  0  0  0  0  0  0
    2.3177   -0.8043    0.0000 C   0  0  0  0  0  0  0  0  0  0  0  0
    0.8739   -0.8043    0.0000 C   0  0  0  0  0  0  0  0  0  0  0  0
    2.2765    1.6706    0.0000 C   0  0  0  0  0  0  0  0  0  0  0  0
    1.5339    2.9082    0.0000 O   0  0  0  0  0  0  0  0  0  0  0  0
   -0.5698    1.6706    0.0000 C   0  0  0  0  0  0  0  0  0  0  0  0
   -1.2710    0.3918    0.0000 N   0  0  0  0  0  0  0  0  0  0  0  0
    2.3177   -1.6706    0.0000 C   0  0  0  0  0  0  0  0  0  0  0  0
    3.0190   -0.3918    0.0000 F   0  0  0  0  0  0  0  0  0  0  0  0
    0.8739   -1.6294    0.0000 C   0  0  0  0  0  0  0  0  0  0  0  0
    2.9778    2.0832    0.0000 C   0  0  0  0  0  0  0  0  0  0  0  0
   -1.2710    2.0832    0.0000 F   0  0  0  0  0  0  0  0  0  0  0  0
    1.5752   -2.0419    0.0000 C   0  0  0  0  0  0  0  0  0  0  0  0
    3.6791    1.6706    0.0000 O   0  0  0  0  0  0  0  0  0  0  0  0
    2.9778    2.9082    0.0000 O   0  0  0  0  0  0  0  0  0  0  0  0
    1.5752   -2.9082    0.0000 F   0  0  0  0  0  0  0  0  0  0  0  0
   -2.0409    0.6888    0.0000 C   0  0  0  0  0  0  0  0  0  0  0  0
   -2.5611    0.0485    0.0000 C   0  0  0  0  0  0  0  0  0  0  0  0
   -2.1129   -0.6441    0.0000 C   0  0  0  0  0  0  0  0  0  0  0  0
   -1.2744   -0.4319    0.0000 C   0  0  0  0  0  0  0  0  0  0  0  0
   -2.9624   -0.6393    0.0000 C   0  0  0  0  0  0  0  0  0  0  0  0
   -3.6791   -1.0483    0.0000 N   0  0  0  0  0  0  0  0  0  0  0  0
    0.0000    0.0000    0.0000 H   0  0  0  0  0  0  0  0  0  0  0  0
    0.0000    0.0000    0.0000 H   0  0  0  0  0  0  0  0  0  0  0  0
    0.0000    0.0000    0.0000 H   0  0  0  0  0  0  0  0  0  0  0  0
    0.0000    0.0000    0.0000 H   0  0  0  0  0  0  0  0  0  0  0  0
    0.0000    0.0000    0.0000 H   0  0  0  0  0  0  0  0  0  0  0  0
    0.0000    0.0000    0.0000 H   0  0  0  0  0  0  0  0  0  0  0  0
    0.0000    0.0000    0.0000 H   0  0  0  0  0  0  0  0  0  0  0  0
    0.0000    0.0000    0.0000 H   0  0  0  0  0  0  0  0  0  0  0  0
    0.0000    0.0000    0.0000 H   0  0  0  0  0  0  0  0  0  0  0  0
    0.0000    0.0000    0.0000 H   0  0  0  0  0  0  0  0  0  0  0  0
    0.0000    0.0000    0.0000 H   0  0  0  0  0  0  0  0  0  0  0  0
    0.0000    0.0000    0.0000 H   0  0  0  0  0  0  0  0  0  0  0  0
    0.0000    0.0000    0.0000 H   0  0  0  0  0  0  0  0  0  0  0  0
    0.0000    0.0000    0.0000 H   0  0  0  0  0  0  0  0  0  0  0  0
    0.0000    0.0000    0.0000 H   0  0  0  0  0  0  0  0  0  0  0  0
  1  2  1  0
  1  3  1  0
  1  4  2  0
  2  5  1  0
  2  6  1  0
  3  7  1  0
  3  8  2  0
  4  9  1  0
  5 10  2  0
  5 11  1  0
  6 12  2  0
  7 13  2  0
  8 14  1  0
  9 15  1  0
 10 16  1  0
 10 17  1  0
 11 18  2  0
 12 19  1  0
 14 20  1  0
 16 21  2  0
 19 22  1  0
 19 23  2  0
 21 24  1  0
  7 12  1  0
  9 14  2  0
 18 21  1  0
 15 25  1  0
 25 26  1  0
 26 27  1  0
 27 28  1  0
 15 28  1  0
 26 29  1  0
 29 27  1  0
 29 30  1  1
  6 31  1  0
  8 32  1  0
 11 33  1  0
 16 34  1  0
 18 35  1  0
 22 36  1  0
 25 37  1  0
 25 38  1  0
 26 39  1  6
 27 40  1  6
 28 41  1  0
 28 42  1  0
 29 43  1  0
 30 44  1  0
 30 45  1  0
M  END
>  <ALOGPS_LOGP>  (1) 
0.86

>  <ALOGPS_LOGS>  (1) 
-3.77

>  <ALOGPS_SOLUBILITY>  (1) 
7.04e-02 g/l

>  <DATABASE_ID>  (1) 
DB00685

>  <DATABASE_NAME>  (1) 
drugbank

>  <DRUGBANK_ID>  (1) 
DB00685

>  <DRUG_GROUPS>  (1) 
approved; investigational; withdrawn

>  <EXACT_MASS>  (1) 
416.109624848

>  <FORMULA>  (1) 
C20H15F3N4O3

>  <GENERIC_NAME>  (1) 
Trovafloxacin

>  <INCHI_IDENTIFIER>  (1) 
InChI=1S/C20H15F3N4O3/c21-8-1-2-15(13(22)3-8)27-7-12(20(29)30)17(28)9-4-14(23)19(25-18(9)27)26-5-10-11(6-26)16(10)24/h1-4,7,10-11,16H,5-6,24H2,(H,29,30)/t10-,11+,16+

>  <INCHI_KEY>  (1) 
WVPSKSLAZQPAKQ-CDMJZVDBSA-N

>  <INTERNATIONAL_BRANDS>  (1) 
Trovan

>  <JCHEM_ACCEPTOR_COUNT>  (1) 
7

>  <JCHEM_ATOM_COUNT>  (1) 
45

>  <JCHEM_AVERAGE_POLARIZABILITY>  (1) 
38.11757279617303

>  <JCHEM_BIOAVAILABILITY>  (1) 
1

>  <JCHEM_DONOR_COUNT>  (1) 
2

>  <JCHEM_FORMAL_CHARGE>  (1) 
0

>  <JCHEM_GHOSE_FILTER>  (1) 
1

>  <JCHEM_IUPAC>  (1) 
7-[(1R,5S,6S)-6-amino-3-azabicyclo[3.1.0]hexan-3-yl]-1-(2,4-difluorophenyl)-6-fluoro-4-oxo-1,4-dihydro-1,8-naphthyridine-3-carboxylic acid

>  <JCHEM_LOGP>  (1) 
0.13645476717269145

>  <JCHEM_MDDR_LIKE_RULE>  (1) 
0

>  <JCHEM_NUMBER_OF_RINGS>  (1) 
5

>  <JCHEM_PHYSIOLOGICAL_CHARGE>  (1) 
0

>  <JCHEM_PKA_STRONGEST_ACIDIC>  (1) 
5.4129478878424715

>  <JCHEM_PKA_STRONGEST_BASIC>  (1) 
9.440102776764602

>  <JCHEM_POLAR_SURFACE_AREA>  (1) 
99.76

>  <JCHEM_REFRACTIVITY>  (1) 
101.04039999999999

>  <JCHEM_ROTATABLE_BOND_COUNT>  (1) 
3

>  <JCHEM_RULE_OF_FIVE>  (1) 
1

>  <JCHEM_TRADITIONAL_IUPAC>  (1) 
7-[(1R,5S,6S)-6-amino-3-azabicyclo[3.1.0]hexan-3-yl]-1-(2,4-difluorophenyl)-6-fluoro-4-oxo-1,8-naphthyridine-3-carboxylic acid

>  <JCHEM_VEBER_RULE>  (1) 
0

>  <MOLECULAR_WEIGHT>  (1) 
416.36

>  <PRODUCTS>  (1) 
Trovan I.V.; Trovan Tablets 100mg; Trovan Tablets 200mg

>  <SALTS>  (1) 
Trovafloxacin hydrochloride; Trovafloxacin mesylate

>  <SECONDARY_ACCESSION_NUMBERS>  (1) 
APRD01281

>  <SMILES>  (1) 
[H][C@@]12CN(C[C@]1([H])[C@H]2N)C1=NC2=C(C=C1F)C(=O)C(=CN2C1=C(F)C=C(F)C=C1)C(O)=O

$$$$
