798
     RDKit          2D

 76 78  0  0  1  0  0  0  0  0999 V2000
    4.9509   -1.9904    0.0000 O   0  0  0  0  0  0  0  0  0  0  0  0
    6.3799    0.4847    0.0000 O   0  0  0  0  0  0  0  0  0  0  0  0
    4.9509   -0.3403    0.0000 O   0  0  0  0  0  0  0  0  0  0  0  0
    4.2365   -0.7528    0.0000 O   0  0  0  0  0  0  0  0  0  0  0  0
    7.6175    1.1992    0.0000 O   0  0  0  0  0  0  0  0  0  0  0  0
    3.5220   -2.8154    0.0000 O   0  0  0  0  0  0  0  0  0  0  0  0
    2.3950   -0.0384    0.0000 O   0  0  0  0  0  0  0  0  0  0  0  0
    6.3799   -2.8154    0.0000 N   0  0  0  0  0  0  0  0  0  0  0  0
    7.9194   -0.7528    0.0000 N   0  0  0  0  0  0  0  0  0  0  0  0
    2.0930   -1.9904    0.0000 N   0  0  0  0  0  0  0  0  0  0  0  0
    5.5549    1.9136    0.0000 N   0  0  0  0  0  0  0  0  0  0  0  0
    9.2675    2.6282    0.0000 N   0  0  0  0  0  0  0  0  0  0  0  0
    5.6655   -1.5778    0.0000 C   0  0  0  0  0  0  0  0  0  0  0  0
    6.3799   -0.3403    0.0000 C   0  0  0  0  0  0  0  0  0  0  0  0
    5.6655   -0.7528    0.0000 C   0  0  0  0  0  0  0  0  0  0  0  0
    6.3799   -1.9904    0.0000 C   0  0  0  0  0  0  0  0  0  0  0  0
    7.0944   -0.7528    0.0000 C   0  0  0  0  0  0  0  0  0  0  0  0
    7.0944   -1.5778    0.0000 C   0  0  0  0  0  0  0  0  0  0  0  0
    4.2365   -1.5778    0.0000 C   0  0  0  0  0  0  0  0  0  0  0  0
    2.8075   -1.5778    0.0000 C   0  0  0  0  0  0  0  0  0  0  0  0
    3.5220   -1.9904    0.0000 C   0  0  0  0  0  0  0  0  0  0  0  0
    6.7925    1.1992    0.0000 C   0  0  0  0  0  0  0  0  0  0  0  0
    2.8075   -0.7528    0.0000 C   0  0  0  0  0  0  0  0  0  0  0  0
    6.3799    1.9136    0.0000 C   0  0  0  0  0  0  0  0  0  0  0  0
    8.0300    1.9136    0.0000 C   0  0  0  0  0  0  0  0  0  0  0  0
    6.7925    2.6282    0.0000 C   0  0  0  0  0  0  0  0  0  0  0  0
    3.5220   -0.3403    0.0000 C   0  0  0  0  0  0  0  0  0  0  0  0
    7.6175    2.6282    0.0000 C   0  0  0  0  0  0  0  0  0  0  0  0
    8.8550    1.9136    0.0000 C   0  0  0  0  0  0  0  0  0  0  0  0
    1.9825   -0.7528    0.0000 C   0  0  0  0  0  0  0  0  0  0  0  0
    9.2675    1.1992    0.0000 C   0  0  0  0  0  0  0  0  0  0  0  0
    2.0930   -2.8154    0.0000 C   0  0  0  0  0  0  0  0  0  0  0  0
   10.0925    2.6282    0.0000 C   0  0  0  0  0  0  0  0  0  0  0  0
    0.0000    0.0000    0.0000 H   0  0  0  0  0  0  0  0  0  0  0  0
    0.0000    0.0000    0.0000 H   0  0  0  0  0  0  0  0  0  0  0  0
    0.0000    0.0000    0.0000 H   0  0  0  0  0  0  0  0  0  0  0  0
    0.0000    0.0000    0.0000 H   0  0  0  0  0  0  0  0  0  0  0  0
    0.0000    0.0000    0.0000 H   0  0  0  0  0  0  0  0  0  0  0  0
    0.0000    0.0000    0.0000 H   0  0  0  0  0  0  0  0  0  0  0  0
    0.0000    0.0000    0.0000 H   0  0  0  0  0  0  0  0  0  0  0  0
    0.0000    0.0000    0.0000 H   0  0  0  0  0  0  0  0  0  0  0  0
    0.0000    0.0000    0.0000 H   0  0  0  0  0  0  0  0  0  0  0  0
    0.0000    0.0000    0.0000 H   0  0  0  0  0  0  0  0  0  0  0  0
    0.0000    0.0000    0.0000 H   0  0  0  0  0  0  0  0  0  0  0  0
    0.0000    0.0000    0.0000 H   0  0  0  0  0  0  0  0  0  0  0  0
    0.0000    0.0000    0.0000 H   0  0  0  0  0  0  0  0  0  0  0  0
    0.0000    0.0000    0.0000 H   0  0  0  0  0  0  0  0  0  0  0  0
    0.0000    0.0000    0.0000 H   0  0  0  0  0  0  0  0  0  0  0  0
    0.0000    0.0000    0.0000 H   0  0  0  0  0  0  0  0  0  0  0  0
    0.0000    0.0000    0.0000 H   0  0  0  0  0  0  0  0  0  0  0  0
    0.0000    0.0000    0.0000 H   0  0  0  0  0  0  0  0  0  0  0  0
    0.0000    0.0000    0.0000 H   0  0  0  0  0  0  0  0  0  0  0  0
    0.0000    0.0000    0.0000 H   0  0  0  0  0  0  0  0  0  0  0  0
    0.0000    0.0000    0.0000 H   0  0  0  0  0  0  0  0  0  0  0  0
    0.0000    0.0000    0.0000 H   0  0  0  0  0  0  0  0  0  0  0  0
    0.0000    0.0000    0.0000 H   0  0  0  0  0  0  0  0  0  0  0  0
    0.0000    0.0000    0.0000 H   0  0  0  0  0  0  0  0  0  0  0  0
    0.0000    0.0000    0.0000 H   0  0  0  0  0  0  0  0  0  0  0  0
    0.0000    0.0000    0.0000 H   0  0  0  0  0  0  0  0  0  0  0  0
    0.0000    0.0000    0.0000 H   0  0  0  0  0  0  0  0  0  0  0  0
    0.0000    0.0000    0.0000 H   0  0  0  0  0  0  0  0  0  0  0  0
    0.0000    0.0000    0.0000 H   0  0  0  0  0  0  0  0  0  0  0  0
    0.0000    0.0000    0.0000 H   0  0  0  0  0  0  0  0  0  0  0  0
    0.0000    0.0000    0.0000 H   0  0  0  0  0  0  0  0  0  0  0  0
    0.0000    0.0000    0.0000 H   0  0  0  0  0  0  0  0  0  0  0  0
    0.0000    0.0000    0.0000 H   0  0  0  0  0  0  0  0  0  0  0  0
    0.0000    0.0000    0.0000 H   0  0  0  0  0  0  0  0  0  0  0  0
    0.0000    0.0000    0.0000 H   0  0  0  0  0  0  0  0  0  0  0  0
    0.0000    0.0000    0.0000 H   0  0  0  0  0  0  0  0  0  0  0  0
    0.0000    0.0000    0.0000 H   0  0  0  0  0  0  0  0  0  0  0  0
    0.0000    0.0000    0.0000 H   0  0  0  0  0  0  0  0  0  0  0  0
    0.0000    0.0000    0.0000 H   0  0  0  0  0  0  0  0  0  0  0  0
    0.0000    0.0000    0.0000 H   0  0  0  0  0  0  0  0  0  0  0  0
    0.0000    0.0000    0.0000 H   0  0  0  0  0  0  0  0  0  0  0  0
    0.0000    0.0000    0.0000 H   0  0  0  0  0  0  0  0  0  0  0  0
    0.0000    0.0000    0.0000 H   0  0  0  0  0  0  0  0  0  0  0  0
  1 13  1  0
  1 19  1  0
  2 14  1  0
  2 22  1  0
  3 15  1  0
  4 19  1  0
  4 27  1  0
  5 22  1  0
  5 25  1  0
  6 21  1  0
  7 23  1  0
  8 16  1  0
  9 17  1  0
 10 20  1  0
 10 32  1  0
 11 24  1  0
 12 29  1  0
 12 33  1  0
 13 15  1  0
 13 16  1  0
 14 15  1  0
 14 17  1  0
 16 18  1  0
 17 18  1  0
 19 21  1  0
 20 21  1  0
 20 23  1  0
 22 24  1  0
 23 27  1  0
 23 30  1  0
 24 26  1  0
 25 28  1  0
 25 29  1  0
 26 28  1  0
 29 31  1  0
  3 34  1  0
  6 35  1  0
  7 36  1  0
  8 37  1  0
  8 38  1  0
  9 39  1  0
  9 40  1  0
 10 41  1  0
 11 42  1  0
 11 43  1  0
 12 44  1  0
 13 45  1  0
 14 46  1  0
 15 47  1  0
 16 48  1  0
 17 49  1  0
 18 50  1  0
 18 51  1  0
 19 52  1  0
 20 53  1  0
 21 54  1  0
 22 55  1  0
 24 56  1  0
 25 57  1  0
 26 58  1  0
 26 59  1  0
 27 60  1  0
 27 61  1  0
 28 62  1  0
 28 63  1  0
 29 64  1  0
 30 65  1  0
 30 66  1  0
 30 67  1  0
 31 68  1  0
 31 69  1  0
 31 70  1  0
 32 71  1  0
 32 72  1  0
 32 73  1  0
 33 74  1  0
 33 75  1  0
 33 76  1  0
M  END
>  <ALOGPS_LOGP>  (1) 
-1.64

>  <ALOGPS_LOGS>  (1) 
-1.58

>  <ALOGPS_SOLUBILITY>  (1) 
1.26e+01 g/l

>  <DATABASE_ID>  (1) 
DB00798

>  <DATABASE_NAME>  (1) 
drugbank

>  <DRUGBANK_ID>  (1) 
DB00798

>  <DRUG_GROUPS>  (1) 
approved; vet_approved

>  <EXACT_MASS>  (1) 
477.316248755

>  <FORMULA>  (1) 
C21H43N5O7

>  <GENERIC_NAME>  (1) 
Gentamicin

>  <INCHI_IDENTIFIER>  (1) 
InChI=1S/C21H43N5O7/c1-9(25-3)13-6-5-10(22)19(31-13)32-16-11(23)7-12(24)17(14(16)27)33-20-15(28)18(26-4)21(2,29)8-30-20/h9-20,25-29H,5-8,22-24H2,1-4H3

>  <INCHI_KEY>  (1) 
CEAZRRDELHUEMR-UHFFFAOYSA-N

>  <INTERNATIONAL_BRANDS>  (1) 
Alcomicin; Bristagen; G-Mycin; Genoptic; Gentacidin; Gentafair; Gentamar; Jenamicin; Ocu-Mycin; Spectro-Genta; U-gencin

>  <JCHEM_ACCEPTOR_COUNT>  (1) 
12

>  <JCHEM_AVERAGE_POLARIZABILITY>  (1) 
51.923795808054095

>  <JCHEM_BIOAVAILABILITY>  (1) 
0

>  <JCHEM_DONOR_COUNT>  (1) 
8

>  <JCHEM_FORMAL_CHARGE>  (1) 
0

>  <JCHEM_GHOSE_FILTER>  (1) 
0

>  <JCHEM_IUPAC>  (1) 
2-{[4,6-diamino-3-({3-amino-6-[1-(methylamino)ethyl]oxan-2-yl}oxy)-2-hydroxycyclohexyl]oxy}-5-methyl-4-(methylamino)oxane-3,5-diol

>  <JCHEM_LOGP>  (1) 
-3.1371555293333344

>  <JCHEM_MDDR_LIKE_RULE>  (1) 
1

>  <JCHEM_NUMBER_OF_RINGS>  (1) 
3

>  <JCHEM_PHYSIOLOGICAL_CHARGE>  (1) 
5

>  <JCHEM_PKA>  (1) 
13.159419991605812

>  <JCHEM_PKA_STRONGEST_ACIDIC>  (1) 
12.5491782180648

>  <JCHEM_PKA_STRONGEST_BASIC>  (1) 
10.183710185453362

>  <JCHEM_POLAR_SURFACE_AREA>  (1) 
199.73000000000002

>  <JCHEM_REFRACTIVITY>  (1) 
118.02069999999998

>  <JCHEM_ROTATABLE_BOND_COUNT>  (1) 
7

>  <JCHEM_RULE_OF_FIVE>  (1) 
0

>  <JCHEM_TRADITIONAL_IUPAC>  (1) 
gentamicin

>  <JCHEM_VEBER_RULE>  (1) 
0

>  <MOLECULAR_WEIGHT>  (1) 
477.5954

>  <PRODUCTS>  (1) 
Alcomicin Oph Sol 3mg/ml; Betamycin Ophthalmic/otic Solution; Cidomycin Inj 10mg/ml; Cidomycin Inj 40mg/ml; Cidomycin Inj Pediatric 10mg; Diprogen Cream; Diprogen Ointment; Dom-gentamicin-betamethasone; Garamycin; Garamycin Cream 0.1%; Garamycin Gentamicin Sulfate; Garamycin Inj 10mg/ml Pediatric; Garamycin Inj 40mg/ml; Garamycin Ont 0.1%; Garamycin Ophthalmic Drops 0.3%; Garamycin Ophthalmic Ointment 0.3%; Garamycin Otic Drops 0.3%; Garasone Ophthalmic Ointment; Garasone Ophthalmic and Otic Solution; Garatec Ophthalmic Dps 5mg/ml; Garatec Otic Dps 5mg/ml; Gentacidin Oph Soln 3mg/ml; Gentacidin Ophthalmic Solution 3mg/ml; Gentak; Gentamicin; Gentamicin Injection USP; Gentamicin Sulfate; Gentamicin Sulfate In 0.9% Sodium Chloride Injection; Gentamicin Sulfate In Nacl 0.9% Inj; Gentamicin Sulfate In Nacl O.9% Inj; Gentamicin Sulfate in Sodium Chloride; Gentamicin Sulphate 0.3%  - Liq Oph; Gentamicin Sulphate Injection USP-10mg/ml; Gentamicin Sulphate Injection USP-40mg/ml; Gentamicin sulfate; Gentamicin(e) 100mg Liq IV 1mg/ml; Gentamicin(e) 120mg Liq IV 1.2mg/ml; Gentamicin(e) 80mg Liq IV 1.6mg/ml; Gentrasul Liq 3mg/ml; Gentrasul Oph Ointment 3mg/gm; Minims Gentamicin Sulfate 0.3%; Ocugram Liq 3mg/ml; Ocugram Ont 3mg/gm; Odan-gentamicin; PMS-gentamicin Cream 1mg/gm; PMS-gentamicin Ointment 1mg/gm; PMS-gentamicin Ophthalmic Ointment 0.3%; PMS-gentamicin Otic Drops 0.3%; PMS-gentamicin Sulfate Oph Dps 0.3%; PMS-gentamicin-betamethasone; Pred-G; R.O.-gentycin; Ratio-gentamicin; Sandoz Gentamicin; Sandoz Pentasone; Septopal; Valisone-G Cream; Valisone-G Ointment

>  <SALTS>  (1) 
Gentamicin sulfate

>  <SECONDARY_ACCESSION_NUMBERS>  (1) 
APRD00214

>  <SMILES>  (1) 
CNC(C)C1CCC(N)C(OC2C(N)CC(N)C(OC3OCC(C)(O)C(NC)C3O)C2O)O1

$$$$
