
     RDKit          2D

 57 57  0  0  1  0  0  0  0  0999 V2000
    8.5222   -1.7365    0.0000 O   0  0  0  0  0  0  0  0  0  0  0  0
    6.1727   -3.4435    0.0000 O   0  0  0  0  0  0  0  0  0  0  0  0
    7.0701    0.9685    0.0000 O   0  0  0  0  0  0  0  0  0  0  0  0
    2.1365    0.8972    0.0000 O   0  0  0  0  0  0  0  0  0  0  0  0
    1.6949   -0.4618    0.0000 O   0  0  0  0  0  0  0  0  0  0  0  0
    7.0701   -1.5065    0.0000 C   0  0  0  0  0  0  0  0  0  0  0  0
    6.4027   -1.9915    0.0000 C   0  0  0  0  0  0  0  0  0  0  0  0
    7.7375   -1.9915    0.0000 C   0  0  0  0  0  0  0  0  0  0  0  0
    7.4826   -2.7761    0.0000 C   0  0  0  0  0  0  0  0  0  0  0  0
    6.6576   -2.7761    0.0000 C   0  0  0  0  0  0  0  0  0  0  0  0
    5.6180   -1.7365    0.0000 C   0  0  0  0  0  0  0  0  0  0  0  0
    7.0701   -0.6815    0.0000 C   0  0  0  0  0  0  0  0  0  0  0  0
    7.7846   -0.2690    0.0000 C   0  0  0  0  0  0  0  0  0  0  0  0
    5.0050   -2.2886    0.0000 C   0  0  0  0  0  0  0  0  0  0  0  0
    7.7846    0.5560    0.0000 C   0  0  0  0  0  0  0  0  0  0  0  0
    8.4990    0.9685    0.0000 C   0  0  0  0  0  0  0  0  0  0  0  0
    8.4990    1.7935    0.0000 C   0  0  0  0  0  0  0  0  0  0  0  0
    4.2203   -2.0336    0.0000 C   0  0  0  0  0  0  0  0  0  0  0  0
    9.2136    2.2060    0.0000 C   0  0  0  0  0  0  0  0  0  0  0  0
    4.0488   -1.2266    0.0000 C   0  0  0  0  0  0  0  0  0  0  0  0
    9.2136    3.0310    0.0000 C   0  0  0  0  0  0  0  0  0  0  0  0
    3.2641   -0.9717    0.0000 C   0  0  0  0  0  0  0  0  0  0  0  0
    3.0926   -0.1647    0.0000 C   0  0  0  0  0  0  0  0  0  0  0  0
    9.9280    3.4435    0.0000 C   0  0  0  0  0  0  0  0  0  0  0  0
    2.3080    0.0903    0.0000 C   0  0  0  0  0  0  0  0  0  0  0  0
    0.0000    0.0000    0.0000 H   0  0  0  0  0  0  0  0  0  0  0  0
    0.0000    0.0000    0.0000 H   0  0  0  0  0  0  0  0  0  0  0  0
    0.0000    0.0000    0.0000 H   0  0  0  0  0  0  0  0  0  0  0  0
    0.0000    0.0000    0.0000 H   0  0  0  0  0  0  0  0  0  0  0  0
    0.0000    0.0000    0.0000 H   0  0  0  0  0  0  0  0  0  0  0  0
    0.0000    0.0000    0.0000 H   0  0  0  0  0  0  0  0  0  0  0  0
    0.0000    0.0000    0.0000 H   0  0  0  0  0  0  0  0  0  0  0  0
    0.0000    0.0000    0.0000 H   0  0  0  0  0  0  0  0  0  0  0  0
    0.0000    0.0000    0.0000 H   0  0  0  0  0  0  0  0  0  0  0  0
    0.0000    0.0000    0.0000 H   0  0  0  0  0  0  0  0  0  0  0  0
    0.0000    0.0000    0.0000 H   0  0  0  0  0  0  0  0  0  0  0  0
    0.0000    0.0000    0.0000 H   0  0  0  0  0  0  0  0  0  0  0  0
    0.0000    0.0000    0.0000 H   0  0  0  0  0  0  0  0  0  0  0  0
    0.0000    0.0000    0.0000 H   0  0  0  0  0  0  0  0  0  0  0  0
    0.0000    0.0000    0.0000 H   0  0  0  0  0  0  0  0  0  0  0  0
    0.0000    0.0000    0.0000 H   0  0  0  0  0  0  0  0  0  0  0  0
    0.0000    0.0000    0.0000 H   0  0  0  0  0  0  0  0  0  0  0  0
    0.0000    0.0000    0.0000 H   0  0  0  0  0  0  0  0  0  0  0  0
    0.0000    0.0000    0.0000 H   0  0  0  0  0  0  0  0  0  0  0  0
    0.0000    0.0000    0.0000 H   0  0  0  0  0  0  0  0  0  0  0  0
    0.0000    0.0000    0.0000 H   0  0  0  0  0  0  0  0  0  0  0  0
    0.0000    0.0000    0.0000 H   0  0  0  0  0  0  0  0  0  0  0  0
    0.0000    0.0000    0.0000 H   0  0  0  0  0  0  0  0  0  0  0  0
    0.0000    0.0000    0.0000 H   0  0  0  0  0  0  0  0  0  0  0  0
    0.0000    0.0000    0.0000 H   0  0  0  0  0  0  0  0  0  0  0  0
    0.0000    0.0000    0.0000 H   0  0  0  0  0  0  0  0  0  0  0  0
    0.0000    0.0000    0.0000 H   0  0  0  0  0  0  0  0  0  0  0  0
    0.0000    0.0000    0.0000 H   0  0  0  0  0  0  0  0  0  0  0  0
    0.0000    0.0000    0.0000 H   0  0  0  0  0  0  0  0  0  0  0  0
    0.0000    0.0000    0.0000 H   0  0  0  0  0  0  0  0  0  0  0  0
    0.0000    0.0000    0.0000 H   0  0  0  0  0  0  0  0  0  0  0  0
    0.0000    0.0000    0.0000 H   0  0  0  0  0  0  0  0  0  0  0  0
  8  1  1  1
  2 10  2  0
 15  3  1  1
  4 25  1  0
  5 25  2  0
  6  7  1  0
  6  8  1  0
  6 12  1  1
  7 10  1  0
  7 11  1  6
  8  9  1  0
  9 10  1  0
 11 14  1  0
 12 13  2  0
 13 15  1  0
 14 18  2  0
 15 16  1  0
 16 17  1  0
 17 19  1  0
 18 20  1  0
 19 21  1  0
 20 22  1  0
 21 24  1  0
 22 23  1  0
 23 25  1  0
  1 26  1  0
  3 27  1  0
  4 28  1  0
  6 29  1  0
  7 30  1  0
  8 31  1  0
  9 32  1  0
  9 33  1  0
 11 34  1  0
 11 35  1  0
 12 36  1  0
 13 37  1  0
 14 38  1  0
 15 39  1  0
 16 40  1  0
 16 41  1  0
 17 42  1  0
 17 43  1  0
 18 44  1  0
 19 45  1  0
 19 46  1  0
 20 47  1  0
 20 48  1  0
 21 49  1  0
 21 50  1  0
 22 51  1  0
 22 52  1  0
 23 53  1  0
 23 54  1  0
 24 55  1  0
 24 56  1  0
 24 57  1  0
M  END
>  <ALOGPS_LOGP>  (1) 
3.31

>  <ALOGPS_LOGS>  (1) 
-3.90

>  <ALOGPS_SOLUBILITY>  (1) 
4.40e-02 g/l

>  <DATABASE_ID>  (1) 
DB00917

>  <DATABASE_NAME>  (1) 
drugbank

>  <DRUGBANK_ID>  (1) 
DB00917

>  <DRUG_GROUPS>  (1) 
approved

>  <EXACT_MASS>  (1) 
352.224974134

>  <FORMULA>  (1) 
C20H32O5

>  <GENERIC_NAME>  (1) 
Dinoprostone

>  <INCHI_IDENTIFIER>  (1) 
InChI=1S/C20H32O5/c1-2-3-6-9-15(21)12-13-17-16(18(22)14-19(17)23)10-7-4-5-8-11-20(24)25/h4,7,12-13,15-17,19,21,23H,2-3,5-6,8-11,14H2,1H3,(H,24,25)/b7-4-,13-12+/t15-,16+,17+,19+/m0/s1

>  <INCHI_KEY>  (1) 
XEYBRNLFEZDVAW-ARSRFYASSA-N

>  <INTERNATIONAL_BRANDS>  (1) 
Propess; Prostarmon E; PROSTIN

>  <JCHEM_ACCEPTOR_COUNT>  (1) 
5

>  <JCHEM_AVERAGE_POLARIZABILITY>  (1) 
40.99510239904402

>  <JCHEM_BIOAVAILABILITY>  (1) 
1

>  <JCHEM_DONOR_COUNT>  (1) 
3

>  <JCHEM_FORMAL_CHARGE>  (1) 
0

>  <JCHEM_GHOSE_FILTER>  (1) 
1

>  <JCHEM_IUPAC>  (1) 
(5Z)-7-[(1R,2R,3R)-3-hydroxy-2-[(1E,3S)-3-hydroxyoct-1-en-1-yl]-5-oxocyclopentyl]hept-5-enoic acid

>  <JCHEM_LOGP>  (1) 
3.2252701369999994

>  <JCHEM_MDDR_LIKE_RULE>  (1) 
0

>  <JCHEM_NUMBER_OF_RINGS>  (1) 
1

>  <JCHEM_PHYSIOLOGICAL_CHARGE>  (1) 
-1

>  <JCHEM_PKA>  (1) 
14.678908140463108

>  <JCHEM_PKA_STRONGEST_ACIDIC>  (1) 
4.303359525644919

>  <JCHEM_PKA_STRONGEST_BASIC>  (1) 
-1.6263175986188916

>  <JCHEM_POLAR_SURFACE_AREA>  (1) 
94.83000000000001

>  <JCHEM_REFRACTIVITY>  (1) 
99.43509999999999

>  <JCHEM_ROTATABLE_BOND_COUNT>  (1) 
12

>  <JCHEM_RULE_OF_FIVE>  (1) 
1

>  <JCHEM_TRADITIONAL_IUPAC>  (1) 
dinoprostone

>  <JCHEM_VEBER_RULE>  (1) 
0

>  <MOLECULAR_WEIGHT>  (1) 
352.4651

>  <PRODUCTS>  (1) 
Cervidil; Dinoprostone; Prepidil; Prepidil Gel; Prostin E2; Prostin E2 Tablets; Prostin E2 Vaginal Gel

>  <SECONDARY_ACCESSION_NUMBERS>  (1) 
APRD00927

>  <SMILES>  (1) 
CCCCC[C@H](O)\C=C\[C@H]1[C@H](O)CC(=O)[C@@H]1C\C=C/CCCC(O)=O

>  <SYNONYMS>  (1) 
PGE2

$$$$
