565
     RDKit          2D

169174  0  0  1  0  0  0  0  0999 V2000
    1.1575   10.9118    0.0000 S   0  0  0  0  0  0  0  0  0  0  0  0
   13.4194   18.8370    0.0000 S   0  0  0  0  0  0  0  0  0  0  0  0
    7.2289   12.4942    0.0000 O   0  0  0  0  0  0  0  0  0  0  0  0
   21.7064    4.1357    0.0000 O   0  0  0  0  0  0  0  0  0  0  0  0
    8.6924   13.3392    0.0000 O   0  0  0  0  0  0  0  0  0  0  0  0
   21.7064    5.8255    0.0000 O   0  0  0  0  0  0  0  0  0  0  0  0
   11.8919    8.1405    0.0000 O   0  0  0  0  0  0  0  0  0  0  0  0
   15.6045    5.9971    0.0000 O   0  0  0  0  0  0  0  0  0  0  0  0
   10.6544    7.4260    0.0000 O   0  0  0  0  0  0  0  0  0  0  0  0
   15.6045    4.5680    0.0000 O   0  0  0  0  0  0  0  0  0  0  0  0
    6.5589   12.0445    0.0000 O   0  0  0  0  0  0  0  0  0  0  0  0
   20.2230    0.8555    0.0000 O   0  0  0  0  0  0  0  0  0  0  0  0
    5.1299   11.2195    0.0000 O   0  0  0  0  0  0  0  0  0  0  0  0
   21.6519    1.6805    0.0000 O   0  0  0  0  0  0  0  0  0  0  0  0
    1.1575   11.7368    0.0000 O   0  0  0  0  0  0  0  0  0  0  0  0
   13.4194   19.6620    0.0000 O   0  0  0  0  0  0  0  0  0  0  0  0
    1.9825   10.9118    0.0000 O   0  0  0  0  0  0  0  0  0  0  0  0
    0.3325   10.9118    0.0000 O   0  0  0  0  0  0  0  0  0  0  0  0
   14.2444   18.8370    0.0000 O   0  0  0  0  0  0  0  0  0  0  0  0
   12.5944   18.8370    0.0000 O   0  0  0  0  0  0  0  0  0  0  0  0
    9.4168    9.5695    0.0000 N   0  0  0  0  0  0  0  0  0  0  0  0
   18.0795    4.5680    0.0000 N   0  0  0  0  0  0  0  0  0  0  0  0
    8.7024    9.9820    0.0000 C   0  0  0  0  0  0  0  0  0  0  0  0
   18.7940    4.1555    0.0000 C   0  0  0  0  0  0  0  0  0  0  0  0
   10.1313    9.9820    0.0000 C   0  0  0  0  0  0  0  0  0  0  0  0
   18.0795    5.3931    0.0000 C   0  0  0  0  0  0  0  0  0  0  0  0
    9.8293    8.8550    0.0000 C   0  0  0  0  0  0  0  0  0  0  0  0
   17.2545    4.5680    0.0000 C   0  0  0  0  0  0  0  0  0  0  0  0
    8.7024   10.8070    0.0000 C   0  0  0  0  0  0  0  0  0  0  0  0
   19.5085    4.5680    0.0000 C   0  0  0  0  0  0  0  0  0  0  0  0
   10.1313   10.8070    0.0000 C   0  0  0  0  0  0  0  0  0  0  0  0
   18.7940    5.8056    0.0000 C   0  0  0  0  0  0  0  0  0  0  0  0
    9.0043    8.8550    0.0000 C   0  0  0  0  0  0  0  0  0  0  0  0
   17.6670    3.8536    0.0000 C   0  0  0  0  0  0  0  0  0  0  0  0
    7.9878    9.5695    0.0000 C   0  0  0  0  0  0  0  0  0  0  0  0
   18.7940    3.3305    0.0000 C   0  0  0  0  0  0  0  0  0  0  0  0
    9.4168   11.2195    0.0000 C   0  0  0  0  0  0  0  0  0  0  0  0
   19.5085    5.3931    0.0000 C   0  0  0  0  0  0  0  0  0  0  0  0
   10.6544    8.8550    0.0000 C   0  0  0  0  0  0  0  0  0  0  0  0
   16.8420    5.2826    0.0000 C   0  0  0  0  0  0  0  0  0  0  0  0
    7.9516   11.2252    0.0000 C   0  0  0  0  0  0  0  0  0  0  0  0
   20.2460    4.1270    0.0000 C   0  0  0  0  0  0  0  0  0  0  0  0
    7.2734    9.9820    0.0000 C   0  0  0  0  0  0  0  0  0  0  0  0
   19.5085    2.9180    0.0000 C   0  0  0  0  0  0  0  0  0  0  0  0
    9.4300   12.0788    0.0000 C   0  0  0  0  0  0  0  0  0  0  0  0
   20.2460    5.8342    0.0000 C   0  0  0  0  0  0  0  0  0  0  0  0
    7.9449   12.0845    0.0000 C   0  0  0  0  0  0  0  0  0  0  0  0
   20.9935    4.5509    0.0000 C   0  0  0  0  0  0  0  0  0  0  0  0
    8.6892   12.5142    0.0000 C   0  0  0  0  0  0  0  0  0  0  0  0
   20.9935    5.4103    0.0000 C   0  0  0  0  0  0  0  0  0  0  0  0
   11.0669    8.1405    0.0000 C   0  0  0  0  0  0  0  0  0  0  0  0
   16.0170    5.2826    0.0000 C   0  0  0  0  0  0  0  0  0  0  0  0
    7.2734   10.8070    0.0000 C   0  0  0  0  0  0  0  0  0  0  0  0
   19.5085    2.0930    0.0000 C   0  0  0  0  0  0  0  0  0  0  0  0
    6.5589    9.5695    0.0000 C   0  0  0  0  0  0  0  0  0  0  0  0
   20.2230    3.3305    0.0000 C   0  0  0  0  0  0  0  0  0  0  0  0
    6.5589   11.2195    0.0000 C   0  0  0  0  0  0  0  0  0  0  0  0
   20.2230    1.6805    0.0000 C   0  0  0  0  0  0  0  0  0  0  0  0
    5.8444    9.9820    0.0000 C   0  0  0  0  0  0  0  0  0  0  0  0
   20.9375    2.9180    0.0000 C   0  0  0  0  0  0  0  0  0  0  0  0
    5.8444   10.8070    0.0000 C   0  0  0  0  0  0  0  0  0  0  0  0
   20.9375    2.0930    0.0000 C   0  0  0  0  0  0  0  0  0  0  0  0
   12.3044    7.4260    0.0000 C   0  0  0  0  0  0  0  0  0  0  0  0
   14.7795    5.9971    0.0000 C   0  0  0  0  0  0  0  0  0  0  0  0
   13.1294    7.4260    0.0000 C   0  0  0  0  0  0  0  0  0  0  0  0
   14.3669    6.7115    0.0000 C   0  0  0  0  0  0  0  0  0  0  0  0
    7.2257   13.3193    0.0000 C   0  0  0  0  0  0  0  0  0  0  0  0
   22.4225    4.5454    0.0000 C   0  0  0  0  0  0  0  0  0  0  0  0
   13.5419    6.7115    0.0000 C   0  0  0  0  0  0  0  0  0  0  0  0
    9.4084   13.7489    0.0000 C   0  0  0  0  0  0  0  0  0  0  0  0
   21.7033    6.6506    0.0000 C   0  0  0  0  0  0  0  0  0  0  0  0
    5.8444   12.4570    0.0000 C   0  0  0  0  0  0  0  0  0  0  0  0
   19.5085    0.4430    0.0000 C   0  0  0  0  0  0  0  0  0  0  0  0
    4.4154   10.8070    0.0000 C   0  0  0  0  0  0  0  0  0  0  0  0
   21.6519    0.8555    0.0000 C   0  0  0  0  0  0  0  0  0  0  0  0
    1.1575   10.0868    0.0000 C   0  0  0  0  0  0  0  0  0  0  0  0
   13.4194   18.0120    0.0000 C   0  0  0  0  0  0  0  0  0  0  0  0
    1.8720    9.6742    0.0000 C   0  0  0  0  0  0  0  0  0  0  0  0
   14.1340   17.5995    0.0000 C   0  0  0  0  0  0  0  0  0  0  0  0
    0.4430    9.6742    0.0000 C   0  0  0  0  0  0  0  0  0  0  0  0
   12.7049   17.5995    0.0000 C   0  0  0  0  0  0  0  0  0  0  0  0
    1.8720    8.8492    0.0000 C   0  0  0  0  0  0  0  0  0  0  0  0
   14.1340   16.7744    0.0000 C   0  0  0  0  0  0  0  0  0  0  0  0
    0.4430    8.8492    0.0000 C   0  0  0  0  0  0  0  0  0  0  0  0
   12.7049   16.7744    0.0000 C   0  0  0  0  0  0  0  0  0  0  0  0
    1.1575    8.4367    0.0000 C   0  0  0  0  0  0  0  0  0  0  0  0
   13.4194   16.3619    0.0000 C   0  0  0  0  0  0  0  0  0  0  0  0
    0.0000    0.0000    0.0000 H   0  0  0  0  0  0  0  0  0  0  0  0
    0.0000    0.0000    0.0000 H   0  0  0  0  0  0  0  0  0  0  0  0
    0.0000    0.0000    0.0000 H   0  0  0  0  0  0  0  0  0  0  0  0
    0.0000    0.0000    0.0000 H   0  0  0  0  0  0  0  0  0  0  0  0
    0.0000    0.0000    0.0000 H   0  0  0  0  0  0  0  0  0  0  0  0
    0.0000    0.0000    0.0000 H   0  0  0  0  0  0  0  0  0  0  0  0
    0.0000    0.0000    0.0000 H   0  0  0  0  0  0  0  0  0  0  0  0
    0.0000    0.0000    0.0000 H   0  0  0  0  0  0  0  0  0  0  0  0
    0.0000    0.0000    0.0000 H   0  0  0  0  0  0  0  0  0  0  0  0
    0.0000    0.0000    0.0000 H   0  0  0  0  0  0  0  0  0  0  0  0
    0.0000    0.0000    0.0000 H   0  0  0  0  0  0  0  0  0  0  0  0
    0.0000    0.0000    0.0000 H   0  0  0  0  0  0  0  0  0  0  0  0
    0.0000    0.0000    0.0000 H   0  0  0  0  0  0  0  0  0  0  0  0
    0.0000    0.0000    0.0000 H   0  0  0  0  0  0  0  0  0  0  0  0
    0.0000    0.0000    0.0000 H   0  0  0  0  0  0  0  0  0  0  0  0
    0.0000    0.0000    0.0000 H   0  0  0  0  0  0  0  0  0  0  0  0
    0.0000    0.0000    0.0000 H   0  0  0  0  0  0  0  0  0  0  0  0
    0.0000    0.0000    0.0000 H   0  0  0  0  0  0  0  0  0  0  0  0
    0.0000    0.0000    0.0000 H   0  0  0  0  0  0  0  0  0  0  0  0
    0.0000    0.0000    0.0000 H   0  0  0  0  0  0  0  0  0  0  0  0
    0.0000    0.0000    0.0000 H   0  0  0  0  0  0  0  0  0  0  0  0
    0.0000    0.0000    0.0000 H   0  0  0  0  0  0  0  0  0  0  0  0
    0.0000    0.0000    0.0000 H   0  0  0  0  0  0  0  0  0  0  0  0
    0.0000    0.0000    0.0000 H   0  0  0  0  0  0  0  0  0  0  0  0
    0.0000    0.0000    0.0000 H   0  0  0  0  0  0  0  0  0  0  0  0
    0.0000    0.0000    0.0000 H   0  0  0  0  0  0  0  0  0  0  0  0
    0.0000    0.0000    0.0000 H   0  0  0  0  0  0  0  0  0  0  0  0
    0.0000    0.0000    0.0000 H   0  0  0  0  0  0  0  0  0  0  0  0
    0.0000    0.0000    0.0000 H   0  0  0  0  0  0  0  0  0  0  0  0
    0.0000    0.0000    0.0000 H   0  0  0  0  0  0  0  0  0  0  0  0
    0.0000    0.0000    0.0000 H   0  0  0  0  0  0  0  0  0  0  0  0
    0.0000    0.0000    0.0000 H   0  0  0  0  0  0  0  0  0  0  0  0
    0.0000    0.0000    0.0000 H   0  0  0  0  0  0  0  0  0  0  0  0
    0.0000    0.0000    0.0000 H   0  0  0  0  0  0  0  0  0  0  0  0
    0.0000    0.0000    0.0000 H   0  0  0  0  0  0  0  0  0  0  0  0
    0.0000    0.0000    0.0000 H   0  0  0  0  0  0  0  0  0  0  0  0
    0.0000    0.0000    0.0000 H   0  0  0  0  0  0  0  0  0  0  0  0
    0.0000    0.0000    0.0000 H   0  0  0  0  0  0  0  0  0  0  0  0
    0.0000    0.0000    0.0000 H   0  0  0  0  0  0  0  0  0  0  0  0
    0.0000    0.0000    0.0000 H   0  0  0  0  0  0  0  0  0  0  0  0
    0.0000    0.0000    0.0000 H   0  0  0  0  0  0  0  0  0  0  0  0
    0.0000    0.0000    0.0000 H   0  0  0  0  0  0  0  0  0  0  0  0
    0.0000    0.0000    0.0000 H   0  0  0  0  0  0  0  0  0  0  0  0
    0.0000    0.0000    0.0000 H   0  0  0  0  0  0  0  0  0  0  0  0
    0.0000    0.0000    0.0000 H   0  0  0  0  0  0  0  0  0  0  0  0
    0.0000    0.0000    0.0000 H   0  0  0  0  0  0  0  0  0  0  0  0
    0.0000    0.0000    0.0000 H   0  0  0  0  0  0  0  0  0  0  0  0
    0.0000    0.0000    0.0000 H   0  0  0  0  0  0  0  0  0  0  0  0
    0.0000    0.0000    0.0000 H   0  0  0  0  0  0  0  0  0  0  0  0
    0.0000    0.0000    0.0000 H   0  0  0  0  0  0  0  0  0  0  0  0
    0.0000    0.0000    0.0000 H   0  0  0  0  0  0  0  0  0  0  0  0
    0.0000    0.0000    0.0000 H   0  0  0  0  0  0  0  0  0  0  0  0
    0.0000    0.0000    0.0000 H   0  0  0  0  0  0  0  0  0  0  0  0
    0.0000    0.0000    0.0000 H   0  0  0  0  0  0  0  0  0  0  0  0
    0.0000    0.0000    0.0000 H   0  0  0  0  0  0  0  0  0  0  0  0
    0.0000    0.0000    0.0000 H   0  0  0  0  0  0  0  0  0  0  0  0
    0.0000    0.0000    0.0000 H   0  0  0  0  0  0  0  0  0  0  0  0
    0.0000    0.0000    0.0000 H   0  0  0  0  0  0  0  0  0  0  0  0
    0.0000    0.0000    0.0000 H   0  0  0  0  0  0  0  0  0  0  0  0
    0.0000    0.0000    0.0000 H   0  0  0  0  0  0  0  0  0  0  0  0
    0.0000    0.0000    0.0000 H   0  0  0  0  0  0  0  0  0  0  0  0
    0.0000    0.0000    0.0000 H   0  0  0  0  0  0  0  0  0  0  0  0
    0.0000    0.0000    0.0000 H   0  0  0  0  0  0  0  0  0  0  0  0
    0.0000    0.0000    0.0000 H   0  0  0  0  0  0  0  0  0  0  0  0
    0.0000    0.0000    0.0000 H   0  0  0  0  0  0  0  0  0  0  0  0
    0.0000    0.0000    0.0000 H   0  0  0  0  0  0  0  0  0  0  0  0
    0.0000    0.0000    0.0000 H   0  0  0  0  0  0  0  0  0  0  0  0
    0.0000    0.0000    0.0000 H   0  0  0  0  0  0  0  0  0  0  0  0
    0.0000    0.0000    0.0000 H   0  0  0  0  0  0  0  0  0  0  0  0
    0.0000    0.0000    0.0000 H   0  0  0  0  0  0  0  0  0  0  0  0
    0.0000    0.0000    0.0000 H   0  0  0  0  0  0  0  0  0  0  0  0
    0.0000    0.0000    0.0000 H   0  0  0  0  0  0  0  0  0  0  0  0
    0.0000    0.0000    0.0000 H   0  0  0  0  0  0  0  0  0  0  0  0
    0.0000    0.0000    0.0000 H   0  0  0  0  0  0  0  0  0  0  0  0
    0.0000    0.0000    0.0000 H   0  0  0  0  0  0  0  0  0  0  0  0
    0.0000    0.0000    0.0000 H   0  0  0  0  0  0  0  0  0  0  0  0
    0.0000    0.0000    0.0000 H   0  0  0  0  0  0  0  0  0  0  0  0
    0.0000    0.0000    0.0000 H   0  0  0  0  0  0  0  0  0  0  0  0
    0.0000    0.0000    0.0000 H   0  0  0  0  0  0  0  0  0  0  0  0
    0.0000    0.0000    0.0000 H   0  0  0  0  0  0  0  0  0  0  0  0
    0.0000    0.0000    0.0000 H   0  0  0  0  0  0  0  0  0  0  0  0
    0.0000    0.0000    0.0000 H   0  0  0  0  0  0  0  0  0  0  0  0
  1 15  1  0
  1 17  2  0
  1 18  2  0
  1 76  1  0
  2 16  1  0
  2 19  2  0
  2 20  2  0
  2 77  1  0
  3 47  1  0
  3 67  1  0
  4 48  1  0
  4 68  1  0
  5 49  1  0
  5 70  1  0
  6 50  1  0
  6 71  1  0
  7 51  1  0
  7 63  1  0
  8 52  1  0
  8 64  1  0
  9 51  2  0
 10 52  2  0
 11 57  1  0
 11 72  1  0
 12 58  1  0
 12 73  1  0
 13 61  1  0
 13 74  1  0
 14 62  1  0
 14 75  1  0
 21 23  1  0
 21 25  1  0
 21 27  1  6
 21 33  1  0
 22 24  1  0
 22 26  1  0
 22 28  1  1
 22 34  1  0
 23 29  1  0
 23 35  1  6
 24 30  1  0
 24 36  1  1
 25 31  1  0
 26 32  1  0
 27 39  1  0
 28 40  1  0
 29 37  2  0
 29 41  1  0
 30 38  2  0
 30 42  1  0
 31 37  1  0
 32 38  1  0
 35 43  1  0
 36 44  1  0
 37 45  1  0
 38 46  1  0
 39 51  1  0
 40 52  1  0
 41 47  2  0
 42 48  2  0
 43 53  2  0
 43 55  1  0
 44 54  2  0
 44 56  1  0
 45 49  2  0
 46 50  2  0
 47 49  1  0
 48 50  1  0
 53 57  1  0
 54 58  1  0
 55 59  2  0
 56 60  2  0
 57 61  2  0
 58 62  2  0
 59 61  1  0
 60 62  1  0
 63 65  1  0
 64 66  1  0
 65 69  1  0
 66 69  1  0
 76 78  2  0
 76 80  1  0
 77 79  2  0
 77 81  1  0
 78 82  1  0
 79 83  1  0
 80 84  2  0
 81 85  2  0
 82 86  2  0
 83 87  2  0
 84 86  1  0
 85 87  1  0
 23 88  1  0
 24 89  1  0
 25 90  1  0
 25 91  1  0
 26 92  1  0
 26 93  1  0
 27 94  1  0
 27 95  1  0
 28 96  1  0
 28 97  1  0
 31 98  1  0
 31 99  1  0
 32100  1  0
 32101  1  0
 33102  1  0
 33103  1  0
 33104  1  0
 34105  1  0
 34106  1  0
 34107  1  0
 35108  1  0
 35109  1  0
 36110  1  0
 36111  1  0
 39112  1  0
 39113  1  0
 40114  1  0
 40115  1  0
 41116  1  0
 42117  1  0
 45118  1  0
 46119  1  0
 53120  1  0
 54121  1  0
 55122  1  0
 56123  1  0
 59124  1  0
 60125  1  0
 63126  1  0
 63127  1  0
 64128  1  0
 64129  1  0
 65130  1  0
 65131  1  0
 66132  1  0
 66133  1  0
 67134  1  0
 67135  1  0
 67136  1  0
 68137  1  0
 68138  1  0
 68139  1  0
 69140  1  0
 69141  1  0
 70142  1  0
 70143  1  0
 70144  1  0
 71145  1  0
 71146  1  0
 71147  1  0
 72148  1  0
 72149  1  0
 72150  1  0
 73151  1  0
 73152  1  0
 73153  1  0
 74154  1  0
 74155  1  0
 74156  1  0
 75157  1  0
 75158  1  0
 75159  1  0
 78160  1  0
 79161  1  0
 80162  1  0
 81163  1  0
 82164  1  0
 83165  1  0
 84166  1  0
 85167  1  0
 86168  1  0
 87169  1  0
M  CHG  4  15  -1  16  -1  21   1  22   1
M  END
>  <ALOGPS_LOGP>  (1) 
3.34

>  <ALOGPS_LOGS>  (1) 
-7.47

>  <ALOGPS_SOLUBILITY>  (1) 
4.17e-05 g/l

>  <DATABASE_ID>  (1) 
DB00565

>  <DATABASE_NAME>  (1) 
drugbank

>  <DRUGBANK_ID>  (1) 
DB00565

>  <DRUG_GROUPS>  (1) 
approved

>  <EXACT_MASS>  (1) 
1242.50040521

>  <FORMULA>  (1) 
C65H82N2O18S2

>  <GENERIC_NAME>  (1) 
Cisatracurium besylate

>  <INCHI_IDENTIFIER>  (1) 
InChI=1S/C53H72N2O12.2C6H6O3S/c1-54(22-18-38-32-48(62-7)50(64-9)34-40(38)42(54)28-36-14-16-44(58-3)46(30-36)60-5)24-20-52(56)66-26-12-11-13-27-67-53(57)21-25-55(2)23-19-39-33-49(63-8)51(65-10)35-41(39)43(55)29-37-15-17-45(59-4)47(31-37)61-6;2*7-10(8,9)6-4-2-1-3-5-6/h14-17,30-35,42-43H,11-13,18-29H2,1-10H3;2*1-5H,(H,7,8,9)/q+2;;/p-2/t42-,43-,54-,55-;;/m1../s1

>  <INCHI_KEY>  (1) 
XXZSQOVSEBAPGS-DONVQRBFSA-L

>  <INTERNATIONAL_BRANDS>  (1) 
Nimbex Forte; Nimbium

>  <JCHEM_ACCEPTOR_COUNT>  (1) 
10

>  <JCHEM_AVERAGE_POLARIZABILITY>  (1) 
105.54862065626298

>  <JCHEM_BIOAVAILABILITY>  (1) 
0

>  <JCHEM_DONOR_COUNT>  (1) 
0

>  <JCHEM_FORMAL_CHARGE>  (1) 
0

>  <JCHEM_GHOSE_FILTER>  (1) 
0

>  <JCHEM_IUPAC>  (1) 
(1R,2R)-1-[(3,4-dimethoxyphenyl)methyl]-2-(3-{[5-({3-[(1R,2R)-1-[(3,4-dimethoxyphenyl)methyl]-6,7-dimethoxy-2-methyl-1,2,3,4-tetrahydroisoquinolin-2-ium-2-yl]propanoyl}oxy)pentyl]oxy}-3-oxopropyl)-6,7-dimethoxy-2-methyl-1,2,3,4-tetrahydroisoquinolin-2-ium dibenzenesulfonate

>  <JCHEM_LOGP>  (1) 
-0.9590320619434906

>  <JCHEM_MDDR_LIKE_RULE>  (1) 
1

>  <JCHEM_NUMBER_OF_RINGS>  (1) 
8

>  <JCHEM_PHYSIOLOGICAL_CHARGE>  (1) 
2

>  <JCHEM_PKA>  (1) 
19.618566918135095

>  <JCHEM_PKA_STRONGEST_ACIDIC>  (1) 
19.016506926807132

>  <JCHEM_PKA_STRONGEST_BASIC>  (1) 
-4.114322707937125

>  <JCHEM_POLAR_SURFACE_AREA>  (1) 
126.44000000000003

>  <JCHEM_REFRACTIVITY>  (1) 
280.6771999999999

>  <JCHEM_ROTATABLE_BOND_COUNT>  (1) 
28

>  <JCHEM_RULE_OF_FIVE>  (1) 
0

>  <JCHEM_TRADITIONAL_IUPAC>  (1) 
(1R,2R)-1-[(3,4-dimethoxyphenyl)methyl]-2-(3-{[5-({3-[(1R,2R)-1-[(3,4-dimethoxyphenyl)methyl]-6,7-dimethoxy-2-methyl-3,4-dihydro-1H-isoquinolin-2-ium-2-yl]propanoyl}oxy)pentyl]oxy}-3-oxopropyl)-6,7-dimethoxy-2-methyl-3,4-dihydro-1H-isoquinolin-2-ium dibenzenesulfonate

>  <JCHEM_VEBER_RULE>  (1) 
0

>  <MOLECULAR_WEIGHT>  (1) 
1243.479

>  <PRODUCTS>  (1) 
Aj-cisatracurium; Cisatracurium; Cisatracurium Besylate; Cisatracurium Besylate Injection; Cisatracurium Besylate Injection (preservative-free); Cisatracurium Besylate Injection Multi-dose; Cisatracurium Besylate Injection Single Dose; Cisatracurium Omega Multidose; Nimbex; Nimbex 10mg/ml

>  <SECONDARY_ACCESSION_NUMBERS>  (1) 
APRD00874

>  <SMILES>  (1) 
[O-]S(=O)(=O)C1=CC=CC=C1.[O-]S(=O)(=O)C1=CC=CC=C1.COC1=C(OC)C=C(C[C@@H]2C3=CC(OC)=C(OC)C=C3CC[N@+]2(C)CCC(=O)OCCCCCOC(=O)CC[N@@+]2(C)CCC3=CC(OC)=C(OC)C=C3[C@H]2CC2=CC(OC)=C(OC)C=C2)C=C1

>  <SYNONYMS>  (1) 
Besilate de cisatracurium; Besilato de cisatracurio; Cisatracurii besilas; Cisatracurium-Kation

$$$$
