806
     RDKit          2D

 38 39  0  0  0  0  0  0  0  0999 V2000
    6.6515    1.6500    0.0000 O   0  0  0  0  0  0  0  0  0  0  0  0
    5.2224   -0.8250    0.0000 O   0  0  0  0  0  0  0  0  0  0  0  0
    2.3645    1.6500    0.0000 O   0  0  0  0  0  0  0  0  0  0  0  0
    5.9370    0.4125    0.0000 N   0  0  0  0  0  0  0  0  0  0  0  0
    6.6515   -0.8250    0.0000 N   0  0  0  0  0  0  0  0  0  0  0  0
    8.1466    0.6639    0.0000 N   0  0  0  0  0  0  0  0  0  0  0  0
    8.1466   -0.6639    0.0000 N   0  0  0  0  0  0  0  0  0  0  0  0
    5.2224    0.8250    0.0000 C   0  0  0  0  0  0  0  0  0  0  0  0
    4.5080    0.4125    0.0000 C   0  0  0  0  0  0  0  0  0  0  0  0
    3.7935    0.8250    0.0000 C   0  0  0  0  0  0  0  0  0  0  0  0
    7.3659    0.4125    0.0000 C   0  0  0  0  0  0  0  0  0  0  0  0
    6.6515    0.8250    0.0000 C   0  0  0  0  0  0  0  0  0  0  0  0
    7.3659   -0.4125    0.0000 C   0  0  0  0  0  0  0  0  0  0  0  0
    5.9370   -0.4125    0.0000 C   0  0  0  0  0  0  0  0  0  0  0  0
    3.0791    0.4125    0.0000 C   0  0  0  0  0  0  0  0  0  0  0  0
    8.6280    0.0000    0.0000 C   0  0  0  0  0  0  0  0  0  0  0  0
    6.6515   -1.6500    0.0000 C   0  0  0  0  0  0  0  0  0  0  0  0
    8.4029    1.4482    0.0000 C   0  0  0  0  0  0  0  0  0  0  0  0
    2.3645    0.8250    0.0000 C   0  0  0  0  0  0  0  0  0  0  0  0
    1.6500    0.4125    0.0000 C   0  0  0  0  0  0  0  0  0  0  0  0
    0.0000    0.0000    0.0000 H   0  0  0  0  0  0  0  0  0  0  0  0
    0.0000    0.0000    0.0000 H   0  0  0  0  0  0  0  0  0  0  0  0
    0.0000    0.0000    0.0000 H   0  0  0  0  0  0  0  0  0  0  0  0
    0.0000    0.0000    0.0000 H   0  0  0  0  0  0  0  0  0  0  0  0
    0.0000    0.0000    0.0000 H   0  0  0  0  0  0  0  0  0  0  0  0
    0.0000    0.0000    0.0000 H   0  0  0  0  0  0  0  0  0  0  0  0
    0.0000    0.0000    0.0000 H   0  0  0  0  0  0  0  0  0  0  0  0
    0.0000    0.0000    0.0000 H   0  0  0  0  0  0  0  0  0  0  0  0
    0.0000    0.0000    0.0000 H   0  0  0  0  0  0  0  0  0  0  0  0
    0.0000    0.0000    0.0000 H   0  0  0  0  0  0  0  0  0  0  0  0
    0.0000    0.0000    0.0000 H   0  0  0  0  0  0  0  0  0  0  0  0
    0.0000    0.0000    0.0000 H   0  0  0  0  0  0  0  0  0  0  0  0
    0.0000    0.0000    0.0000 H   0  0  0  0  0  0  0  0  0  0  0  0
    0.0000    0.0000    0.0000 H   0  0  0  0  0  0  0  0  0  0  0  0
    0.0000    0.0000    0.0000 H   0  0  0  0  0  0  0  0  0  0  0  0
    0.0000    0.0000    0.0000 H   0  0  0  0  0  0  0  0  0  0  0  0
    0.0000    0.0000    0.0000 H   0  0  0  0  0  0  0  0  0  0  0  0
    0.0000    0.0000    0.0000 H   0  0  0  0  0  0  0  0  0  0  0  0
  1 12  2  0
  2 14  2  0
  3 19  2  0
  4  8  1  0
  4 12  1  0
  4 14  1  0
  5 13  1  0
  5 14  1  0
  5 17  1  0
  6 11  1  0
  6 16  1  0
  6 18  1  0
  7 13  1  0
  7 16  2  0
  8  9  1  0
  9 10  1  0
 10 15  1  0
 11 12  1  0
 11 13  2  0
 15 19  1  0
 19 20  1  0
  8 21  1  0
  8 22  1  0
  9 23  1  0
  9 24  1  0
 10 25  1  0
 10 26  1  0
 15 27  1  0
 15 28  1  0
 16 29  1  0
 17 30  1  0
 17 31  1  0
 17 32  1  0
 18 33  1  0
 18 34  1  0
 18 35  1  0
 20 36  1  0
 20 37  1  0
 20 38  1  0
M  END
>  <ALOGPS_LOGP>  (1) 
0.08

>  <ALOGPS_LOGS>  (1) 
-1.73

>  <ALOGPS_SOLUBILITY>  (1) 
5.17e+00 g/l

>  <DATABASE_ID>  (1) 
DB00806

>  <DATABASE_NAME>  (1) 
drugbank

>  <DRUGBANK_ID>  (1) 
DB00806

>  <DRUG_GROUPS>  (1) 
approved; investigational

>  <EXACT_MASS>  (1) 
278.137890462

>  <FORMULA>  (1) 
C13H18N4O3

>  <GENERIC_NAME>  (1) 
Pentoxifylline

>  <INCHI_IDENTIFIER>  (1) 
InChI=1S/C13H18N4O3/c1-9(18)6-4-5-7-17-12(19)10-11(14-8-15(10)2)16(3)13(17)20/h8H,4-7H2,1-3H3

>  <INCHI_KEY>  (1) 
BYPFEZZEUUWMEJ-UHFFFAOYSA-N

>  <INTERNATIONAL_BRANDS>  (1) 
Agapurin; Agapurin SR; An Ruo Ning; Angiopent; Ao Le Ni; Ao Nuo Hong; Aotong; Azupentat; Behrifil; Bo Shu Te; Claudicat; Durapental; Elorgan; Endopentoksas; Pentilin; Pentilin Retard; Pentoflux; Pentofyllin; Pentoksifilin; Pentolab; Pentomer; Pentoxil; Rentylin; Torental; Trentilin Retard

>  <JCHEM_ACCEPTOR_COUNT>  (1) 
4

>  <JCHEM_AVERAGE_POLARIZABILITY>  (1) 
29.269593476836803

>  <JCHEM_BIOAVAILABILITY>  (1) 
1

>  <JCHEM_DONOR_COUNT>  (1) 
0

>  <JCHEM_FORMAL_CHARGE>  (1) 
0

>  <JCHEM_GHOSE_FILTER>  (1) 
1

>  <JCHEM_IUPAC>  (1) 
3,7-dimethyl-1-(5-oxohexyl)-2,3,6,7-tetrahydro-1H-purine-2,6-dione

>  <JCHEM_LOGP>  (1) 
0.23220584566666638

>  <JCHEM_MDDR_LIKE_RULE>  (1) 
0

>  <JCHEM_NUMBER_OF_RINGS>  (1) 
2

>  <JCHEM_PHYSIOLOGICAL_CHARGE>  (1) 
0

>  <JCHEM_PKA_STRONGEST_ACIDIC>  (1) 
19.64286715835779

>  <JCHEM_PKA_STRONGEST_BASIC>  (1) 
-0.9270915732483686

>  <JCHEM_POLAR_SURFACE_AREA>  (1) 
75.51

>  <JCHEM_REFRACTIVITY>  (1) 
73.52229999999999

>  <JCHEM_ROTATABLE_BOND_COUNT>  (1) 
5

>  <JCHEM_RULE_OF_FIVE>  (1) 
1

>  <JCHEM_TRADITIONAL_IUPAC>  (1) 
pentoxifylline

>  <JCHEM_VEBER_RULE>  (1) 
0

>  <MOLECULAR_WEIGHT>  (1) 
278.307

>  <PRODUCTS>  (1) 
Gapeam Budibac; Nu-pentoxifylline-SR 400 mg; Pentoxifylline; Pentoxifylline SR; Ratio-pentoxifylline; Trental; Trental Srt 400mg; Trental Tab 400mg

>  <SECONDARY_ACCESSION_NUMBERS>  (1) 
APRD00121

>  <SMILES>  (1) 
CN1C=NC2=C1C(=O)N(CCCCC(C)=O)C(=O)N2C

>  <SYNONYMS>  (1) 
Oxpentifylline; Pentoxifilina; Pentoxifyllin; Pentoxifylline; Pentoxifyllinum

$$$$
