944
     RDKit          2D

 92 93  0  0  0  0  0  0  0  0999 V2000
    9.8294   13.2993    0.0000 O   0  0  0  0  0  0  0  0  0  0  0  0
    4.8281    3.8116    0.0000 O   0  0  0  0  0  0  0  0  0  0  0  0
   10.5440   12.0618    0.0000 O   0  0  0  0  0  0  0  0  0  0  0  0
    4.1135    5.0491    0.0000 O   0  0  0  0  0  0  0  0  0  0  0  0
   11.2584   15.7743    0.0000 N   0  0  0  0  0  0  0  0  0  0  0  0
    3.3991    1.3365    0.0000 N   0  0  0  0  0  0  0  0  0  0  0  0
    9.1150   12.0618    0.0000 N   0  0  0  0  0  0  0  0  0  0  0  0
    5.5426    5.0491    0.0000 N   0  0  0  0  0  0  0  0  0  0  0  0
    7.6860    8.7617    0.0000 C   0  0  0  0  0  0  0  0  0  0  0  0
    6.9715    8.3492    0.0000 C   0  0  0  0  0  0  0  0  0  0  0  0
    7.6860    9.5867    0.0000 C   0  0  0  0  0  0  0  0  0  0  0  0
    6.9715    7.5242    0.0000 C   0  0  0  0  0  0  0  0  0  0  0  0
    8.4005    9.9992    0.0000 C   0  0  0  0  0  0  0  0  0  0  0  0
    6.2570    7.1117    0.0000 C   0  0  0  0  0  0  0  0  0  0  0  0
    8.4005   10.8242    0.0000 C   0  0  0  0  0  0  0  0  0  0  0  0
    6.2570    6.2866    0.0000 C   0  0  0  0  0  0  0  0  0  0  0  0
    9.1150   11.2367    0.0000 C   0  0  0  0  0  0  0  0  0  0  0  0
    5.5426    5.8741    0.0000 C   0  0  0  0  0  0  0  0  0  0  0  0
   11.2584   14.9493    0.0000 C   0  0  0  0  0  0  0  0  0  0  0  0
    3.3991    2.1615    0.0000 C   0  0  0  0  0  0  0  0  0  0  0  0
   11.2584   16.5994    0.0000 C   0  0  0  0  0  0  0  0  0  0  0  0
   12.0835   15.7743    0.0000 C   0  0  0  0  0  0  0  0  0  0  0  0
   10.4334   15.7743    0.0000 C   0  0  0  0  0  0  0  0  0  0  0  0
    3.3991    0.5115    0.0000 C   0  0  0  0  0  0  0  0  0  0  0  0
    2.5741    1.3365    0.0000 C   0  0  0  0  0  0  0  0  0  0  0  0
    4.2241    1.3365    0.0000 C   0  0  0  0  0  0  0  0  0  0  0  0
   10.5440   14.5368    0.0000 C   0  0  0  0  0  0  0  0  0  0  0  0
    4.1135    2.5741    0.0000 C   0  0  0  0  0  0  0  0  0  0  0  0
   11.9729   14.5368    0.0000 C   0  0  0  0  0  0  0  0  0  0  0  0
    2.6846    2.5741    0.0000 C   0  0  0  0  0  0  0  0  0  0  0  0
   10.5440   13.7118    0.0000 C   0  0  0  0  0  0  0  0  0  0  0  0
    4.1135    3.3991    0.0000 C   0  0  0  0  0  0  0  0  0  0  0  0
    9.8294   12.4743    0.0000 C   0  0  0  0  0  0  0  0  0  0  0  0
    4.8281    4.6366    0.0000 C   0  0  0  0  0  0  0  0  0  0  0  0
    8.4005   12.4743    0.0000 C   0  0  0  0  0  0  0  0  0  0  0  0
    6.2570    4.6366    0.0000 C   0  0  0  0  0  0  0  0  0  0  0  0
   11.9729   13.7118    0.0000 C   0  0  0  0  0  0  0  0  0  0  0  0
    2.6846    3.3991    0.0000 C   0  0  0  0  0  0  0  0  0  0  0  0
   11.2584   13.2993    0.0000 C   0  0  0  0  0  0  0  0  0  0  0  0
    3.3991    3.8116    0.0000 C   0  0  0  0  0  0  0  0  0  0  0  0
    0.0000    0.0000    0.0000 H   0  0  0  0  0  0  0  0  0  0  0  0
    0.0000    0.0000    0.0000 H   0  0  0  0  0  0  0  0  0  0  0  0
    0.0000    0.0000    0.0000 H   0  0  0  0  0  0  0  0  0  0  0  0
    0.0000    0.0000    0.0000 H   0  0  0  0  0  0  0  0  0  0  0  0
    0.0000    0.0000    0.0000 H   0  0  0  0  0  0  0  0  0  0  0  0
    0.0000    0.0000    0.0000 H   0  0  0  0  0  0  0  0  0  0  0  0
    0.0000    0.0000    0.0000 H   0  0  0  0  0  0  0  0  0  0  0  0
    0.0000    0.0000    0.0000 H   0  0  0  0  0  0  0  0  0  0  0  0
    0.0000    0.0000    0.0000 H   0  0  0  0  0  0  0  0  0  0  0  0
    0.0000    0.0000    0.0000 H   0  0  0  0  0  0  0  0  0  0  0  0
    0.0000    0.0000    0.0000 H   0  0  0  0  0  0  0  0  0  0  0  0
    0.0000    0.0000    0.0000 H   0  0  0  0  0  0  0  0  0  0  0  0
    0.0000    0.0000    0.0000 H   0  0  0  0  0  0  0  0  0  0  0  0
    0.0000    0.0000    0.0000 H   0  0  0  0  0  0  0  0  0  0  0  0
    0.0000    0.0000    0.0000 H   0  0  0  0  0  0  0  0  0  0  0  0
    0.0000    0.0000    0.0000 H   0  0  0  0  0  0  0  0  0  0  0  0
    0.0000    0.0000    0.0000 H   0  0  0  0  0  0  0  0  0  0  0  0
    0.0000    0.0000    0.0000 H   0  0  0  0  0  0  0  0  0  0  0  0
    0.0000    0.0000    0.0000 H   0  0  0  0  0  0  0  0  0  0  0  0
    0.0000    0.0000    0.0000 H   0  0  0  0  0  0  0  0  0  0  0  0
    0.0000    0.0000    0.0000 H   0  0  0  0  0  0  0  0  0  0  0  0
    0.0000    0.0000    0.0000 H   0  0  0  0  0  0  0  0  0  0  0  0
    0.0000    0.0000    0.0000 H   0  0  0  0  0  0  0  0  0  0  0  0
    0.0000    0.0000    0.0000 H   0  0  0  0  0  0  0  0  0  0  0  0
    0.0000    0.0000    0.0000 H   0  0  0  0  0  0  0  0  0  0  0  0
    0.0000    0.0000    0.0000 H   0  0  0  0  0  0  0  0  0  0  0  0
    0.0000    0.0000    0.0000 H   0  0  0  0  0  0  0  0  0  0  0  0
    0.0000    0.0000    0.0000 H   0  0  0  0  0  0  0  0  0  0  0  0
    0.0000    0.0000    0.0000 H   0  0  0  0  0  0  0  0  0  0  0  0
    0.0000    0.0000    0.0000 H   0  0  0  0  0  0  0  0  0  0  0  0
    0.0000    0.0000    0.0000 H   0  0  0  0  0  0  0  0  0  0  0  0
    0.0000    0.0000    0.0000 H   0  0  0  0  0  0  0  0  0  0  0  0
    0.0000    0.0000    0.0000 H   0  0  0  0  0  0  0  0  0  0  0  0
    0.0000    0.0000    0.0000 H   0  0  0  0  0  0  0  0  0  0  0  0
    0.0000    0.0000    0.0000 H   0  0  0  0  0  0  0  0  0  0  0  0
    0.0000    0.0000    0.0000 H   0  0  0  0  0  0  0  0  0  0  0  0
    0.0000    0.0000    0.0000 H   0  0  0  0  0  0  0  0  0  0  0  0
    0.0000    0.0000    0.0000 H   0  0  0  0  0  0  0  0  0  0  0  0
    0.0000    0.0000    0.0000 H   0  0  0  0  0  0  0  0  0  0  0  0
    0.0000    0.0000    0.0000 H   0  0  0  0  0  0  0  0  0  0  0  0
    0.0000    0.0000    0.0000 H   0  0  0  0  0  0  0  0  0  0  0  0
    0.0000    0.0000    0.0000 H   0  0  0  0  0  0  0  0  0  0  0  0
    0.0000    0.0000    0.0000 H   0  0  0  0  0  0  0  0  0  0  0  0
    0.0000    0.0000    0.0000 H   0  0  0  0  0  0  0  0  0  0  0  0
    0.0000    0.0000    0.0000 H   0  0  0  0  0  0  0  0  0  0  0  0
    0.0000    0.0000    0.0000 H   0  0  0  0  0  0  0  0  0  0  0  0
    0.0000    0.0000    0.0000 H   0  0  0  0  0  0  0  0  0  0  0  0
    0.0000    0.0000    0.0000 H   0  0  0  0  0  0  0  0  0  0  0  0
    0.0000    0.0000    0.0000 H   0  0  0  0  0  0  0  0  0  0  0  0
    0.0000    0.0000    0.0000 H   0  0  0  0  0  0  0  0  0  0  0  0
    0.0000    0.0000    0.0000 H   0  0  0  0  0  0  0  0  0  0  0  0
    0.0000    0.0000    0.0000 H   0  0  0  0  0  0  0  0  0  0  0  0
  1 31  1  0
  1 33  1  0
  2 32  1  0
  2 34  1  0
  3 33  2  0
  4 34  2  0
  5 19  1  0
  5 21  1  0
  5 22  1  0
  5 23  1  0
  6 20  1  0
  6 24  1  0
  6 25  1  0
  6 26  1  0
  7 17  1  0
  7 33  1  0
  7 35  1  0
  8 18  1  0
  8 34  1  0
  8 36  1  0
  9 10  1  0
  9 11  1  0
 10 12  1  0
 11 13  1  0
 12 14  1  0
 13 15  1  0
 14 16  1  0
 15 17  1  0
 16 18  1  0
 19 27  2  0
 19 29  1  0
 20 28  2  0
 20 30  1  0
 27 31  1  0
 28 32  1  0
 29 37  2  0
 30 38  2  0
 31 39  2  0
 32 40  2  0
 37 39  1  0
 38 40  1  0
  9 41  1  0
  9 42  1  0
 10 43  1  0
 10 44  1  0
 11 45  1  0
 11 46  1  0
 12 47  1  0
 12 48  1  0
 13 49  1  0
 13 50  1  0
 14 51  1  0
 14 52  1  0
 15 53  1  0
 15 54  1  0
 16 55  1  0
 16 56  1  0
 17 57  1  0
 17 58  1  0
 18 59  1  0
 18 60  1  0
 21 61  1  0
 21 62  1  0
 21 63  1  0
 22 64  1  0
 22 65  1  0
 22 66  1  0
 23 67  1  0
 23 68  1  0
 23 69  1  0
 24 70  1  0
 24 71  1  0
 24 72  1  0
 25 73  1  0
 25 74  1  0
 25 75  1  0
 26 76  1  0
 26 77  1  0
 26 78  1  0
 27 79  1  0
 28 80  1  0
 29 81  1  0
 30 82  1  0
 35 83  1  0
 35 84  1  0
 35 85  1  0
 36 86  1  0
 36 87  1  0
 36 88  1  0
 37 89  1  0
 38 90  1  0
 39 91  1  0
 40 92  1  0
M  CHG  2   5   1   6   1
M  END
>  <ALOGPS_LOGP>  (1) 
0.65

>  <ALOGPS_LOGS>  (1) 
-7.57

>  <ALOGPS_SOLUBILITY>  (1) 
1.69e-05 g/l

>  <DATABASE_ID>  (1) 
DB00944

>  <DATABASE_NAME>  (1) 
drugbank

>  <DRUGBANK_ID>  (1) 
DB00944

>  <DRUG_GROUPS>  (1) 
approved

>  <EXACT_MASS>  (1) 
556.398856172

>  <FORMULA>  (1) 
C32H52N4O4

>  <GENERIC_NAME>  (1) 
Demecarium

>  <INCHI_IDENTIFIER>  (1) 
InChI=1S/C32H52N4O4/c1-33(31(37)39-29-21-17-19-27(25-29)35(3,4)5)23-15-13-11-9-10-12-14-16-24-34(2)32(38)40-30-22-18-20-28(26-30)36(6,7)8/h17-22,25-26H,9-16,23-24H2,1-8H3/q+2

>  <INCHI_KEY>  (1) 
RWZVPVOZTJJMNU-UHFFFAOYSA-N

>  <INTERNATIONAL_BRANDS>  (1) 
Humorsol; Tonilen; Tosmilen

>  <JCHEM_ACCEPTOR_COUNT>  (1) 
2

>  <JCHEM_AVERAGE_POLARIZABILITY>  (1) 
64.48727748756866

>  <JCHEM_BIOAVAILABILITY>  (1) 
0

>  <JCHEM_DONOR_COUNT>  (1) 
0

>  <JCHEM_FORMAL_CHARGE>  (1) 
2

>  <JCHEM_GHOSE_FILTER>  (1) 
0

>  <JCHEM_IUPAC>  (1) 
N,N,N-trimethyl-3-{[methyl(10-{methyl[3-(trimethylazaniumyl)phenoxycarbonyl]amino}decyl)carbamoyl]oxy}anilinium

>  <JCHEM_LOGP>  (1) 
-1.4187553209434927

>  <JCHEM_MDDR_LIKE_RULE>  (1) 
0

>  <JCHEM_NUMBER_OF_RINGS>  (1) 
2

>  <JCHEM_PHYSIOLOGICAL_CHARGE>  (1) 
2

>  <JCHEM_POLAR_SURFACE_AREA>  (1) 
59.080000000000005

>  <JCHEM_REFRACTIVITY>  (1) 
185.7105999999998

>  <JCHEM_ROTATABLE_BOND_COUNT>  (1) 
17

>  <JCHEM_RULE_OF_FIVE>  (1) 
0

>  <JCHEM_TRADITIONAL_IUPAC>  (1) 
demecarium

>  <JCHEM_VEBER_RULE>  (1) 
0

>  <MOLECULAR_WEIGHT>  (1) 
556.7797

>  <SALTS>  (1) 
Demecarium bromide

>  <SECONDARY_ACCESSION_NUMBERS>  (1) 
APRD00905

>  <SMILES>  (1) 
CN(CCCCCCCCCCN(C)C(=O)OC1=CC=CC(=C1)[N+](C)(C)C)C(=O)OC1=CC=CC(=C1)[N+](C)(C)C

$$$$
