855
     RDKit          2D

 18 17  0  0  0  0  0  0  0  0999 V2000
    3.5217   -1.0312    0.0000 O   0  0  0  0  0  0  0  0  0  0  0  0
    6.3793   -0.2063    0.0000 O   0  0  0  0  0  0  0  0  0  0  0  0
    5.6650    1.0312    0.0000 O   0  0  0  0  0  0  0  0  0  0  0  0
    2.0928   -0.2063    0.0000 N   0  0  0  0  0  0  0  0  0  0  0  0
    4.2361    0.2063    0.0000 C   0  0  0  0  0  0  0  0  0  0  0  0
    4.9504   -0.2063    0.0000 C   0  0  0  0  0  0  0  0  0  0  0  0
    3.5217   -0.2063    0.0000 C   0  0  0  0  0  0  0  0  0  0  0  0
    2.8072    0.2063    0.0000 C   0  0  0  0  0  0  0  0  0  0  0  0
    5.6650    0.2063    0.0000 C   0  0  0  0  0  0  0  0  0  0  0  0
    0.0000    0.0000    0.0000 H   0  0  0  0  0  0  0  0  0  0  0  0
    0.0000    0.0000    0.0000 H   0  0  0  0  0  0  0  0  0  0  0  0
    0.0000    0.0000    0.0000 H   0  0  0  0  0  0  0  0  0  0  0  0
    0.0000    0.0000    0.0000 H   0  0  0  0  0  0  0  0  0  0  0  0
    0.0000    0.0000    0.0000 H   0  0  0  0  0  0  0  0  0  0  0  0
    0.0000    0.0000    0.0000 H   0  0  0  0  0  0  0  0  0  0  0  0
    0.0000    0.0000    0.0000 H   0  0  0  0  0  0  0  0  0  0  0  0
    0.0000    0.0000    0.0000 H   0  0  0  0  0  0  0  0  0  0  0  0
    0.0000    0.0000    0.0000 H   0  0  0  0  0  0  0  0  0  0  0  0
  1  7  2  0
  2  9  1  0
  3  9  2  0
  4  8  1  0
  5  6  1  0
  5  7  1  0
  6  9  1  0
  7  8  1  0
  2 10  1  0
  4 11  1  0
  4 12  1  0
  5 13  1  0
  5 14  1  0
  6 15  1  0
  6 16  1  0
  8 17  1  0
  8 18  1  0
M  END
>  <ALOGPS_LOGP>  (1) 
-2.85

>  <ALOGPS_LOGS>  (1) 
0.12

>  <ALOGPS_SOLUBILITY>  (1) 
1.73e+02 g/l

>  <DATABASE_ID>  (1) 
DB00855

>  <DATABASE_NAME>  (1) 
drugbank

>  <DRUGBANK_ID>  (1) 
DB00855

>  <DRUG_GROUPS>  (1) 
approved

>  <EXACT_MASS>  (1) 
131.058243159

>  <FORMULA>  (1) 
C5H9NO3

>  <GENERIC_NAME>  (1) 
Aminolevulinic acid

>  <INCHI_IDENTIFIER>  (1) 
InChI=1S/C5H9NO3/c6-3-4(7)1-2-5(8)9/h1-3,6H2,(H,8,9)

>  <INCHI_KEY>  (1) 
ZGXJTSGNIOSYLO-UHFFFAOYSA-N

>  <INTERNATIONAL_BRANDS>  (1) 
Gliolan; Levulan

>  <JCHEM_ACCEPTOR_COUNT>  (1) 
4

>  <JCHEM_AVERAGE_POLARIZABILITY>  (1) 
12.548276397155272

>  <JCHEM_BIOAVAILABILITY>  (1) 
1

>  <JCHEM_DONOR_COUNT>  (1) 
2

>  <JCHEM_FORMAL_CHARGE>  (1) 
0

>  <JCHEM_GHOSE_FILTER>  (1) 
0

>  <JCHEM_IUPAC>  (1) 
5-amino-4-oxopentanoic acid

>  <JCHEM_LOGP>  (1) 
-3.2526454527445376

>  <JCHEM_MDDR_LIKE_RULE>  (1) 
0

>  <JCHEM_NUMBER_OF_RINGS>  (1) 
0

>  <JCHEM_PHYSIOLOGICAL_CHARGE>  (1) 
0

>  <JCHEM_PKA>  (1) 
17.164001067559852

>  <JCHEM_PKA_STRONGEST_ACIDIC>  (1) 
4.053151638897345

>  <JCHEM_PKA_STRONGEST_BASIC>  (1) 
7.835220055699867

>  <JCHEM_POLAR_SURFACE_AREA>  (1) 
80.39

>  <JCHEM_REFRACTIVITY>  (1) 
30.447799999999997

>  <JCHEM_ROTATABLE_BOND_COUNT>  (1) 
4

>  <JCHEM_RULE_OF_FIVE>  (1) 
1

>  <JCHEM_TRADITIONAL_IUPAC>  (1) 
aminolevulinic acid

>  <JCHEM_VEBER_RULE>  (1) 
0

>  <MOLECULAR_WEIGHT>  (1) 
131.1299

>  <PRODUCTS>  (1) 
Ameluz; Gliolan; Levulan Kerastick

>  <SALTS>  (1) 
Aminolevulinic acid hydrochloride

>  <SECONDARY_ACCESSION_NUMBERS>  (1) 
APRD00793; DB05277

>  <SMILES>  (1) 
NCC(=O)CCC(O)=O

>  <SYNONYMS>  (1) 
5-ALA; 5-Aminolevulinic acid; Aminolevulinic acid; dALA; δ-ALA; δ-aminolevulinic acid

$$$$
