1095
     RDKit          2D

 56 58  0  0  1  0  0  0  0  0999 V2000
    4.8848    3.3294    0.0000 F   0  0  0  0  0  0  0  0  0  0  0  0
    6.8162   -0.4714    0.0000 O   0  0  0  0  0  0  0  0  0  0  0  0
    8.0537   -1.1859    0.0000 O   0  0  0  0  0  0  0  0  0  0  0  0
    9.2913   -3.3294    0.0000 O   0  0  0  0  0  0  0  0  0  0  0  0
    9.2913   -1.9003    0.0000 O   0  0  0  0  0  0  0  0  0  0  0  0
    3.8597   -1.1353    0.0000 N   0  0  0  0  0  0  0  0  0  0  0  0
    4.1159   -1.9195    0.0000 C   0  0  0  0  0  0  0  0  0  0  0  0
    4.3412   -0.4714    0.0000 C   0  0  0  0  0  0  0  0  0  0  0  0
    3.0791   -0.8839    0.0000 C   0  0  0  0  0  0  0  0  0  0  0  0
    3.8597    0.1926    0.0000 C   0  0  0  0  0  0  0  0  0  0  0  0
    3.0791   -0.0589    0.0000 C   0  0  0  0  0  0  0  0  0  0  0  0
    5.1662   -0.4714    0.0000 C   0  0  0  0  0  0  0  0  0  0  0  0
    3.5650   -2.5335    0.0000 C   0  0  0  0  0  0  0  0  0  0  0  0
    4.9232   -2.0896    0.0000 C   0  0  0  0  0  0  0  0  0  0  0  0
    4.1159    0.9767    0.0000 C   0  0  0  0  0  0  0  0  0  0  0  0
    2.3645   -1.2964    0.0000 C   0  0  0  0  0  0  0  0  0  0  0  0
    2.3645    0.3536    0.0000 C   0  0  0  0  0  0  0  0  0  0  0  0
    6.4037   -1.1859    0.0000 C   0  0  0  0  0  0  0  0  0  0  0  0
    6.8162   -1.9003    0.0000 C   0  0  0  0  0  0  0  0  0  0  0  0
    5.5787   -1.1859    0.0000 C   0  0  0  0  0  0  0  0  0  0  0  0
    7.6412   -1.9003    0.0000 C   0  0  0  0  0  0  0  0  0  0  0  0
    1.6500   -0.8839    0.0000 C   0  0  0  0  0  0  0  0  0  0  0  0
    1.6500   -0.0589    0.0000 C   0  0  0  0  0  0  0  0  0  0  0  0
    3.5650    1.5908    0.0000 C   0  0  0  0  0  0  0  0  0  0  0  0
    4.9232    1.1469    0.0000 C   0  0  0  0  0  0  0  0  0  0  0  0
    8.0537   -2.6148    0.0000 C   0  0  0  0  0  0  0  0  0  0  0  0
    3.8213    2.3750    0.0000 C   0  0  0  0  0  0  0  0  0  0  0  0
    5.1795    1.9310    0.0000 C   0  0  0  0  0  0  0  0  0  0  0  0
    4.6286    2.5451    0.0000 C   0  0  0  0  0  0  0  0  0  0  0  0
    8.8788   -2.6148    0.0000 C   0  0  0  0  0  0  0  0  0  0  0  0
    0.0000    0.0000    0.0000 H   0  0  0  0  0  0  0  0  0  0  0  0
    0.0000    0.0000    0.0000 H   0  0  0  0  0  0  0  0  0  0  0  0
    0.0000    0.0000    0.0000 H   0  0  0  0  0  0  0  0  0  0  0  0
    0.0000    0.0000    0.0000 H   0  0  0  0  0  0  0  0  0  0  0  0
    0.0000    0.0000    0.0000 H   0  0  0  0  0  0  0  0  0  0  0  0
    0.0000    0.0000    0.0000 H   0  0  0  0  0  0  0  0  0  0  0  0
    0.0000    0.0000    0.0000 H   0  0  0  0  0  0  0  0  0  0  0  0
    0.0000    0.0000    0.0000 H   0  0  0  0  0  0  0  0  0  0  0  0
    0.0000    0.0000    0.0000 H   0  0  0  0  0  0  0  0  0  0  0  0
    0.0000    0.0000    0.0000 H   0  0  0  0  0  0  0  0  0  0  0  0
    0.0000    0.0000    0.0000 H   0  0  0  0  0  0  0  0  0  0  0  0
    0.0000    0.0000    0.0000 H   0  0  0  0  0  0  0  0  0  0  0  0
    0.0000    0.0000    0.0000 H   0  0  0  0  0  0  0  0  0  0  0  0
    0.0000    0.0000    0.0000 H   0  0  0  0  0  0  0  0  0  0  0  0
    0.0000    0.0000    0.0000 H   0  0  0  0  0  0  0  0  0  0  0  0
    0.0000    0.0000    0.0000 H   0  0  0  0  0  0  0  0  0  0  0  0
    0.0000    0.0000    0.0000 H   0  0  0  0  0  0  0  0  0  0  0  0
    0.0000    0.0000    0.0000 H   0  0  0  0  0  0  0  0  0  0  0  0
    0.0000    0.0000    0.0000 H   0  0  0  0  0  0  0  0  0  0  0  0
    0.0000    0.0000    0.0000 H   0  0  0  0  0  0  0  0  0  0  0  0
    0.0000    0.0000    0.0000 H   0  0  0  0  0  0  0  0  0  0  0  0
    0.0000    0.0000    0.0000 H   0  0  0  0  0  0  0  0  0  0  0  0
    0.0000    0.0000    0.0000 H   0  0  0  0  0  0  0  0  0  0  0  0
    0.0000    0.0000    0.0000 H   0  0  0  0  0  0  0  0  0  0  0  0
    0.0000    0.0000    0.0000 H   0  0  0  0  0  0  0  0  0  0  0  0
    0.0000    0.0000    0.0000 H   0  0  0  0  0  0  0  0  0  0  0  0
  1 29  1  0
 18  2  1  6
 21  3  1  6
  4 30  1  0
  5 30  2  0
  6  7  1  0
  6  8  1  0
  6  9  1  0
  7 13  1  0
  7 14  1  0
  8 10  2  0
  8 12  1  0
  9 11  2  0
  9 16  1  0
 10 11  1  0
 10 15  1  0
 11 17  1  0
 12 20  2  0
 15 24  2  0
 15 25  1  0
 16 22  2  0
 17 23  2  0
 18 19  1  0
 18 20  1  0
 19 21  1  0
 21 26  1  0
 22 23  1  0
 24 27  1  0
 25 28  2  0
 26 30  1  0
 27 29  2  0
 28 29  1  0
  2 31  1  0
  3 32  1  0
  4 33  1  0
  7 34  1  0
 12 35  1  0
 13 36  1  0
 13 37  1  0
 13 38  1  0
 14 39  1  0
 14 40  1  0
 14 41  1  0
 16 42  1  0
 17 43  1  0
 18 44  1  0
 19 45  1  0
 19 46  1  0
 20 47  1  0
 21 48  1  0
 22 49  1  0
 23 50  1  0
 24 51  1  0
 25 52  1  0
 26 53  1  0
 26 54  1  0
 27 55  1  0
 28 56  1  0
M  END
>  <ALOGPS_LOGP>  (1) 
3.69

>  <ALOGPS_LOGS>  (1) 
-4.97

>  <ALOGPS_SOLUBILITY>  (1) 
4.41e-03 g/l

>  <DATABASE_ID>  (1) 
DB01095

>  <DATABASE_NAME>  (1) 
drugbank

>  <DRUGBANK_ID>  (1) 
DB01095

>  <DRUG_GROUPS>  (1) 
approved

>  <EXACT_MASS>  (1) 
411.18458653

>  <FORMULA>  (1) 
C24H26FNO4

>  <GENERIC_NAME>  (1) 
Fluvastatin

>  <INCHI_IDENTIFIER>  (1) 
InChI=1S/C24H26FNO4/c1-15(2)26-21-6-4-3-5-20(21)24(16-7-9-17(25)10-8-16)22(26)12-11-18(27)13-19(28)14-23(29)30/h3-12,15,18-19,27-28H,13-14H2,1-2H3,(H,29,30)/b12-11+/t18-,19-/m0/s1

>  <INCHI_KEY>  (1) 
FJLGEFLZQAZZCD-JUFISIKESA-N

>  <INTERNATIONAL_BRANDS>  (1) 
Canef; Cranoc

>  <JCHEM_ACCEPTOR_COUNT>  (1) 
4

>  <JCHEM_AVERAGE_POLARIZABILITY>  (1) 
44.314175993841545

>  <JCHEM_BIOAVAILABILITY>  (1) 
1

>  <JCHEM_DONOR_COUNT>  (1) 
3

>  <JCHEM_FORMAL_CHARGE>  (1) 
0

>  <JCHEM_GHOSE_FILTER>  (1) 
1

>  <JCHEM_IUPAC>  (1) 
(3S,5R,6E)-7-[3-(4-fluorophenyl)-1-(propan-2-yl)-1H-indol-2-yl]-3,5-dihydroxyhept-6-enoic acid

>  <JCHEM_LOGP>  (1) 
3.825949093666666

>  <JCHEM_MDDR_LIKE_RULE>  (1) 
1

>  <JCHEM_NUMBER_OF_RINGS>  (1) 
3

>  <JCHEM_PHYSIOLOGICAL_CHARGE>  (1) 
-1

>  <JCHEM_PKA>  (1) 
14.644783424148272

>  <JCHEM_PKA_STRONGEST_ACIDIC>  (1) 
4.5570100486599445

>  <JCHEM_PKA_STRONGEST_BASIC>  (1) 
-2.8401489650869784

>  <JCHEM_POLAR_SURFACE_AREA>  (1) 
82.69

>  <JCHEM_REFRACTIVITY>  (1) 
114.85530000000003

>  <JCHEM_ROTATABLE_BOND_COUNT>  (1) 
8

>  <JCHEM_RULE_OF_FIVE>  (1) 
1

>  <JCHEM_TRADITIONAL_IUPAC>  (1) 
fluvastatin

>  <JCHEM_VEBER_RULE>  (1) 
0

>  <MOLECULAR_WEIGHT>  (1) 
411.4659

>  <PRODUCTS>  (1) 
Fluvastatin; Fluvastatin Sodium; Fluvastatin Sodium ER; Lescol; Lescol 20mg; Lescol 40mg; Lescol XL; Sandoz Fluvastatin; Teva-fluvastatin

>  <SALTS>  (1) 
Fluvastatin sodium

>  <SECONDARY_ACCESSION_NUMBERS>  (1) 
APRD00346

>  <SMILES>  (1) 
CC(C)N1C(\C=C\[C@H](O)C[C@H](O)CC(O)=O)=C(C2=CC=C(F)C=C2)C2=CC=CC=C12

>  <SYNONYMS>  (1) 
fluvastatina; fluvastatine; fluvastatinum

$$$$
