1200
     RDKit          2D

 83 89  0  0  1  0  0  0  0  0999 V2000
    7.7908   -3.2238    0.0000 Br  0  0  0  0  0  0  0  0  0  0  0  0
    2.4425    1.7524    0.0000 O   0  0  0  0  0  0  0  0  0  0  0  0
    1.9504    2.5868    0.0000 O   0  0  0  0  0  0  0  0  0  0  0  0
    4.5180    1.2848    0.0000 O   0  0  0  0  0  0  0  0  0  0  0  0
    4.2183    4.5118    0.0000 O   0  0  0  0  0  0  0  0  0  0  0  0
    2.7601   -0.7466    0.0000 O   0  0  0  0  0  0  0  0  0  0  0  0
    3.5921    2.4208    0.0000 N   0  0  0  0  0  0  0  0  0  0  0  0
    2.9151    3.9255    0.0000 N   0  0  0  0  0  0  0  0  0  0  0  0
    3.4698    0.4937    0.0000 N   0  0  0  0  0  0  0  0  0  0  0  0
    5.6742   -0.7468    0.0000 N   0  0  0  0  0  0  0  0  0  0  0  0
    6.6493   -4.1429    0.0000 N   0  0  0  0  0  0  0  0  0  0  0  0
    2.4328    3.2562    0.0000 C   0  0  0  0  0  0  0  0  0  0  0  0
    2.7712    2.5038    0.0000 C   0  0  0  0  0  0  0  0  0  0  0  0
    4.0744    3.0900    0.0000 C   0  0  0  0  0  0  0  0  0  0  0  0
    1.6525    3.5086    0.0000 C   0  0  0  0  0  0  0  0  0  0  0  0
    3.0546    1.2066    0.0000 C   0  0  0  0  0  0  0  0  0  0  0  0
    2.4288    4.5858    0.0000 C   0  0  0  0  0  0  0  0  0  0  0  0
    1.6500    4.3288    0.0000 C   0  0  0  0  0  0  0  0  0  0  0  0
    3.7636    1.6188    0.0000 C   0  0  0  0  0  0  0  0  0  0  0  0
    3.7360    3.8424    0.0000 C   0  0  0  0  0  0  0  0  0  0  0  0
    4.8952    3.0069    0.0000 C   0  0  0  0  0  0  0  0  0  0  0  0
    2.5049    0.5914    0.0000 C   0  0  0  0  0  0  0  0  0  0  0  0
    5.3776    3.6763    0.0000 C   0  0  0  0  0  0  0  0  0  0  0  0
    2.7629   -0.1924    0.0000 C   0  0  0  0  0  0  0  0  0  0  0  0
    1.6973    0.7598    0.0000 C   0  0  0  0  0  0  0  0  0  0  0  0
    3.4730   -0.3313    0.0000 C   0  0  0  0  0  0  0  0  0  0  0  0
    4.1891   -0.7411    0.0000 C   0  0  0  0  0  0  0  0  0  0  0  0
    5.6609   -1.6061    0.0000 C   0  0  0  0  0  0  0  0  0  0  0  0
    4.9333   -0.3114    0.0000 C   0  0  0  0  0  0  0  0  0  0  0  0
    6.1984    3.5932    0.0000 C   0  0  0  0  0  0  0  0  0  0  0  0
    5.0391    4.4287    0.0000 C   0  0  0  0  0  0  0  0  0  0  0  0
    4.9465   -2.0186    0.0000 C   0  0  0  0  0  0  0  0  0  0  0  0
    4.1957   -1.6004    0.0000 C   0  0  0  0  0  0  0  0  0  0  0  0
    6.3755   -2.0186    0.0000 C   0  0  0  0  0  0  0  0  0  0  0  0
    4.9465   -2.8436    0.0000 C   0  0  0  0  0  0  0  0  0  0  0  0
    6.3755   -2.8436    0.0000 C   0  0  0  0  0  0  0  0  0  0  0  0
    5.6609   -3.2561    0.0000 C   0  0  0  0  0  0  0  0  0  0  0  0
    6.3934   -0.3426    0.0000 C   0  0  0  0  0  0  0  0  0  0  0  0
    5.6742   -4.1153    0.0000 C   0  0  0  0  0  0  0  0  0  0  0  0
    6.9835   -3.3939    0.0000 C   0  0  0  0  0  0  0  0  0  0  0  0
    4.1957   -3.2618    0.0000 C   0  0  0  0  0  0  0  0  0  0  0  0
    4.9333   -4.5508    0.0000 C   0  0  0  0  0  0  0  0  0  0  0  0
    4.1891   -4.1211    0.0000 C   0  0  0  0  0  0  0  0  0  0  0  0
    0.0000    0.0000    0.0000 H   0  0  0  0  0  0  0  0  0  0  0  0
    0.0000    0.0000    0.0000 H   0  0  0  0  0  0  0  0  0  0  0  0
    0.0000    0.0000    0.0000 H   0  0  0  0  0  0  0  0  0  0  0  0
    0.0000    0.0000    0.0000 H   0  0  0  0  0  0  0  0  0  0  0  0
    0.0000    0.0000    0.0000 H   0  0  0  0  0  0  0  0  0  0  0  0
    0.0000    0.0000    0.0000 H   0  0  0  0  0  0  0  0  0  0  0  0
    0.0000    0.0000    0.0000 H   0  0  0  0  0  0  0  0  0  0  0  0
    0.0000    0.0000    0.0000 H   0  0  0  0  0  0  0  0  0  0  0  0
    0.0000    0.0000    0.0000 H   0  0  0  0  0  0  0  0  0  0  0  0
    0.0000    0.0000    0.0000 H   0  0  0  0  0  0  0  0  0  0  0  0
    0.0000    0.0000    0.0000 H   0  0  0  0  0  0  0  0  0  0  0  0
    0.0000    0.0000    0.0000 H   0  0  0  0  0  0  0  0  0  0  0  0
    0.0000    0.0000    0.0000 H   0  0  0  0  0  0  0  0  0  0  0  0
    0.0000    0.0000    0.0000 H   0  0  0  0  0  0  0  0  0  0  0  0
    0.0000    0.0000    0.0000 H   0  0  0  0  0  0  0  0  0  0  0  0
    0.0000    0.0000    0.0000 H   0  0  0  0  0  0  0  0  0  0  0  0
    0.0000    0.0000    0.0000 H   0  0  0  0  0  0  0  0  0  0  0  0
    0.0000    0.0000    0.0000 H   0  0  0  0  0  0  0  0  0  0  0  0
    0.0000    0.0000    0.0000 H   0  0  0  0  0  0  0  0  0  0  0  0
    0.0000    0.0000    0.0000 H   0  0  0  0  0  0  0  0  0  0  0  0
    0.0000    0.0000    0.0000 H   0  0  0  0  0  0  0  0  0  0  0  0
    0.0000    0.0000    0.0000 H   0  0  0  0  0  0  0  0  0  0  0  0
    0.0000    0.0000    0.0000 H   0  0  0  0  0  0  0  0  0  0  0  0
    0.0000    0.0000    0.0000 H   0  0  0  0  0  0  0  0  0  0  0  0
    0.0000    0.0000    0.0000 H   0  0  0  0  0  0  0  0  0  0  0  0
    0.0000    0.0000    0.0000 H   0  0  0  0  0  0  0  0  0  0  0  0
    0.0000    0.0000    0.0000 H   0  0  0  0  0  0  0  0  0  0  0  0
    0.0000    0.0000    0.0000 H   0  0  0  0  0  0  0  0  0  0  0  0
    0.0000    0.0000    0.0000 H   0  0  0  0  0  0  0  0  0  0  0  0
    0.0000    0.0000    0.0000 H   0  0  0  0  0  0  0  0  0  0  0  0
    0.0000    0.0000    0.0000 H   0  0  0  0  0  0  0  0  0  0  0  0
    0.0000    0.0000    0.0000 H   0  0  0  0  0  0  0  0  0  0  0  0
    0.0000    0.0000    0.0000 H   0  0  0  0  0  0  0  0  0  0  0  0
    0.0000    0.0000    0.0000 H   0  0  0  0  0  0  0  0  0  0  0  0
    0.0000    0.0000    0.0000 H   0  0  0  0  0  0  0  0  0  0  0  0
    0.0000    0.0000    0.0000 H   0  0  0  0  0  0  0  0  0  0  0  0
    0.0000    0.0000    0.0000 H   0  0  0  0  0  0  0  0  0  0  0  0
    0.0000    0.0000    0.0000 H   0  0  0  0  0  0  0  0  0  0  0  0
    0.0000    0.0000    0.0000 H   0  0  0  0  0  0  0  0  0  0  0  0
    0.0000    0.0000    0.0000 H   0  0  0  0  0  0  0  0  0  0  0  0
  1 40  1  0
  2 13  1  0
  2 16  1  0
 13  3  1  6
  4 19  2  0
  5 20  2  0
  6 26  2  0
  7 13  1  0
  7 14  1  0
  7 19  1  0
  8 12  1  0
  8 17  1  0
  8 20  1  0
 16  9  1  6
  9 26  1  0
 10 28  1  0
 10 29  1  0
 10 38  1  0
 11 39  1  0
 11 40  1  0
 12 13  1  0
 12 15  1  0
 14 20  1  0
 14 21  1  1
 15 18  1  0
 16 19  1  0
 16 22  1  0
 17 18  1  0
 21 23  1  0
 22 24  1  0
 22 25  1  0
 23 30  1  0
 23 31  1  0
 27 26  1  1
 27 29  1  0
 27 33  1  0
 28 32  1  0
 28 34  1  0
 32 33  2  0
 32 35  1  0
 34 36  1  0
 35 37  2  0
 35 41  1  0
 36 37  1  0
 36 40  2  0
 37 39  1  0
 39 42  2  0
 41 43  2  0
 42 43  1  0
  3 44  1  0
  9 45  1  0
 11 46  1  0
 12 47  1  1
 14 48  1  0
 15 49  1  0
 15 50  1  0
 17 51  1  0
 17 52  1  0
 18 53  1  0
 18 54  1  0
 21 55  1  0
 21 56  1  0
 22 57  1  0
 23 58  1  0
 24 59  1  0
 24 60  1  0
 24 61  1  0
 25 62  1  0
 25 63  1  0
 25 64  1  0
 27 65  1  0
 28 66  1  1
 29 67  1  0
 29 68  1  0
 30 69  1  0
 30 70  1  0
 30 71  1  0
 31 72  1  0
 31 73  1  0
 31 74  1  0
 33 75  1  0
 34 76  1  0
 34 77  1  0
 38 78  1  0
 38 79  1  0
 38 80  1  0
 41 81  1  0
 42 82  1  0
 43 83  1  0
M  END
>  <ALOGPS_LOGP>  (1) 
3.20

>  <ALOGPS_LOGS>  (1) 
-3.88

>  <ALOGPS_SOLUBILITY>  (1) 
8.58e-02 g/l

>  <DATABASE_ID>  (1) 
DB01200

>  <DATABASE_NAME>  (1) 
drugbank

>  <DRUGBANK_ID>  (1) 
DB01200

>  <DRUG_GROUPS>  (1) 
approved; investigational

>  <EXACT_MASS>  (1) 
653.221282062

>  <FORMULA>  (1) 
C32H40BrN5O5

>  <GENERIC_NAME>  (1) 
Bromocriptine

>  <INCHI_IDENTIFIER>  (1) 
InChI=1S/C32H40BrN5O5/c1-16(2)12-24-29(40)37-11-7-10-25(37)32(42)38(24)30(41)31(43-32,17(3)4)35-28(39)18-13-20-19-8-6-9-22-26(19)21(27(33)34-22)14-23(20)36(5)15-18/h6,8-9,13,16-18,23-25,34,42H,7,10-12,14-15H2,1-5H3,(H,35,39)/t18-,23-,24+,25+,31-,32+/m1/s1

>  <INCHI_KEY>  (1) 
OZVBMTJYIDMWIL-AYFBDAFISA-N

>  <INTERNATIONAL_BRANDS>  (1) 
Apo-Bromocriptine; Bagren; Ergoset; Parlodel Snaptabs; Pravidel

>  <JCHEM_ACCEPTOR_COUNT>  (1) 
6

>  <JCHEM_AVERAGE_POLARIZABILITY>  (1) 
66.43538723439508

>  <JCHEM_BIOAVAILABILITY>  (1) 
1

>  <JCHEM_DONOR_COUNT>  (1) 
3

>  <JCHEM_FORMAL_CHARGE>  (1) 
0

>  <JCHEM_GHOSE_FILTER>  (1) 
0

>  <JCHEM_IUPAC>  (1) 
(4R,7R)-10-bromo-N-[(1S,2S,4R,7S)-2-hydroxy-7-(2-methylpropyl)-5,8-dioxo-4-(propan-2-yl)-3-oxa-6,9-diazatricyclo[7.3.0.0²,⁶]dodecan-4-yl]-6-methyl-6,11-diazatetracyclo[7.6.1.0²,⁷.0¹²,¹⁶]hexadeca-1(16),2,9,12,14-pentaene-4-carboxamide

>  <JCHEM_LOGP>  (1) 
3.8871678083333325

>  <JCHEM_MDDR_LIKE_RULE>  (1) 
0

>  <JCHEM_NUMBER_OF_RINGS>  (1) 
7

>  <JCHEM_PHYSIOLOGICAL_CHARGE>  (1) 
0

>  <JCHEM_PKA>  (1) 
11.12967619452806

>  <JCHEM_PKA_STRONGEST_ACIDIC>  (1) 
9.677615603064185

>  <JCHEM_PKA_STRONGEST_BASIC>  (1) 
6.713916261746808

>  <JCHEM_POLAR_SURFACE_AREA>  (1) 
118.20999999999998

>  <JCHEM_REFRACTIVITY>  (1) 
165.51239999999999

>  <JCHEM_ROTATABLE_BOND_COUNT>  (1) 
5

>  <JCHEM_RULE_OF_FIVE>  (1) 
0

>  <JCHEM_TRADITIONAL_IUPAC>  (1) 
bromocriptine

>  <JCHEM_VEBER_RULE>  (1) 
0

>  <MOLECULAR_WEIGHT>  (1) 
654.595

>  <PRODUCTS>  (1) 
Bromocriptine; Bromocriptine Mesylate; Bromocriptine mesylate; Bromocriptine-2.5 - Tab 2.5mg; Bromocriptine-5; Co Bromocriptine Capsules 5mg; Co Bromocriptine Tablets 2.5mg; Cycloset; Dom-bromocriptine; Nu-bromocriptine; PMS-bromocriptine; Parlodel; Parlodel Cap 5mg; Parlodel Tab 2.5mg; Syn-bromocriptine Cap 5mg; Syn-bromocriptine Tab 2.5mg

>  <SALTS>  (1) 
Bromocriptine mesylate

>  <SECONDARY_ACCESSION_NUMBERS>  (1) 
APRD00622

>  <SMILES>  (1) 
[H][C@@]12CCCN1C(=O)[C@H](CC(C)C)N1C(=O)[C@](NC(=O)[C@H]3CN(C)[C@]4([H])CC5=C(Br)NC6=CC=CC(=C56)C4=C3)(O[C@@]21O)C(C)C

>  <SYNONYMS>  (1) 
2-bromo-α-ergocryptine; 2-bromo-α-ergokryptin; 2-bromo-α-ergokryptine; Bromocriptina; Bromocriptinum; Bromocryptine; Bromoergocriptine; Bromoergocryptine

$$$$
