
     RDKit          2D

 83 87  0  0  1  0  0  0  0  0999 V2000
    3.6858    0.4836    0.0000 C   0  0  0  0  0  0  0  0  0  0  0  0
    0.8759   -2.4117    0.0000 C   0  0  0  0  0  0  0  0  0  0  0  0
    1.8741    0.3097    0.0000 C   0  0  0  0  0  0  0  0  0  0  0  0
    4.3080   -1.3683    0.0000 C   0  0  0  0  0  0  0  0  0  0  0  0
    1.6817   -2.1282    0.0000 C   0  0  0  0  0  0  0  0  0  0  0  0
    5.1705   -6.4820    0.0000 C   0  0  0  0  0  0  0  0  0  0  0  0
    4.0553   -0.2540    0.0000 C   0  0  0  0  0  0  0  0  0  0  0  0
    5.6272   -4.5639    0.0000 C   0  0  0  0  0  0  0  0  0  0  0  0
    6.3527   -4.5861    0.0000 C   0  0  0  0  0  0  0  0  0  0  0  0
    0.1142   -1.1468    0.0000 C   0  0  0  0  0  0  0  0  0  0  0  0
    0.3260   -0.1904    0.0000 C   0  0  0  0  0  0  0  0  0  0  0  0
    0.5791   -0.6364    0.0000 C   0  0  0  0  0  0  0  0  0  0  0  0
    0.6293   -0.9576    0.0000 C   0  0  0  0  0  0  0  0  0  0  0  0
    4.1851   -4.4900    0.0000 C   0  0  0  0  0  0  0  0  0  0  0  0
    4.7139   -4.3702    0.0000 C   0  0  0  0  0  0  0  0  0  0  0  0
    3.3539   -1.3945    0.0000 C   0  0  0  0  0  0  0  0  0  0  0  0
    3.8680   -2.4552    0.0000 C   0  0  0  0  0  0  0  0  0  0  0  0
    0.9262   -1.5882    0.0000 C   0  0  0  0  0  0  0  0  0  0  0  0
    2.0897   -0.4866    0.0000 C   0  0  0  0  0  0  0  0  0  0  0  0
    4.9722   -4.9833    0.0000 C   0  0  0  0  0  0  0  0  0  0  0  0
    5.5285   -4.8998    0.0000 C   0  0  0  0  0  0  0  0  0  0  0  0
    4.5148   -3.7294    0.0000 C   0  0  0  0  0  0  0  0  0  0  0  0
    0.9620    0.3351    0.0000 C   0  0  0  0  0  0  0  0  0  0  0  0
    2.4856   -1.5544    0.0000 C   0  0  0  0  0  0  0  0  0  0  0  0
    3.1324   -2.8286    0.0000 C   0  0  0  0  0  0  0  0  0  0  0  0
    1.6583   -0.1073    0.0000 C   0  0  0  0  0  0  0  0  0  0  0  0
    3.0381   -0.5376    0.0000 C   0  0  0  0  0  0  0  0  0  0  0  0
    3.6012   -0.9428    0.0000 C   0  0  0  0  0  0  0  0  0  0  0  0
    1.6462   -1.3040    0.0000 C   0  0  0  0  0  0  0  0  0  0  0  0
    1.4527   -0.9063    0.0000 C   0  0  0  0  0  0  0  0  0  0  0  0
    5.2024   -5.6577    0.0000 N   0  0  0  0  0  0  0  0  0  0  0  0
    0.9106    1.1585    0.0000 O   0  0  0  0  0  0  0  0  0  0  0  0
    3.0879   -3.6524    0.0000 O   0  0  0  0  0  0  0  0  0  0  0  0
    3.3122    0.2405    0.0000 O   0  0  0  0  0  0  0  0  0  0  0  0
    2.4412   -2.3782    0.0000 O   0  0  0  0  0  0  0  0  0  0  0  0
    4.5592   -2.9056    0.0000 S   0  0  0  0  0  0  0  0  0  0  0  0
    0.0000    0.0000    0.0000 H   0  0  0  0  0  0  0  0  0  0  0  0
    0.0000    0.0000    0.0000 H   0  0  0  0  0  0  0  0  0  0  0  0
    0.0000    0.0000    0.0000 H   0  0  0  0  0  0  0  0  0  0  0  0
    0.0000    0.0000    0.0000 H   0  0  0  0  0  0  0  0  0  0  0  0
    0.0000    0.0000    0.0000 H   0  0  0  0  0  0  0  0  0  0  0  0
    0.0000    0.0000    0.0000 H   0  0  0  0  0  0  0  0  0  0  0  0
    0.0000    0.0000    0.0000 H   0  0  0  0  0  0  0  0  0  0  0  0
    0.0000    0.0000    0.0000 H   0  0  0  0  0  0  0  0  0  0  0  0
    0.0000    0.0000    0.0000 H   0  0  0  0  0  0  0  0  0  0  0  0
    0.0000    0.0000    0.0000 H   0  0  0  0  0  0  0  0  0  0  0  0
    0.0000    0.0000    0.0000 H   0  0  0  0  0  0  0  0  0  0  0  0
    0.0000    0.0000    0.0000 H   0  0  0  0  0  0  0  0  0  0  0  0
    0.0000    0.0000    0.0000 H   0  0  0  0  0  0  0  0  0  0  0  0
    0.0000    0.0000    0.0000 H   0  0  0  0  0  0  0  0  0  0  0  0
    0.0000    0.0000    0.0000 H   0  0  0  0  0  0  0  0  0  0  0  0
    0.0000    0.0000    0.0000 H   0  0  0  0  0  0  0  0  0  0  0  0
    0.0000    0.0000    0.0000 H   0  0  0  0  0  0  0  0  0  0  0  0
    0.0000    0.0000    0.0000 H   0  0  0  0  0  0  0  0  0  0  0  0
    0.0000    0.0000    0.0000 H   0  0  0  0  0  0  0  0  0  0  0  0
    0.0000    0.0000    0.0000 H   0  0  0  0  0  0  0  0  0  0  0  0
    0.0000    0.0000    0.0000 H   0  0  0  0  0  0  0  0  0  0  0  0
    0.0000    0.0000    0.0000 H   0  0  0  0  0  0  0  0  0  0  0  0
    0.0000    0.0000    0.0000 H   0  0  0  0  0  0  0  0  0  0  0  0
    0.0000    0.0000    0.0000 H   0  0  0  0  0  0  0  0  0  0  0  0
    0.0000    0.0000    0.0000 H   0  0  0  0  0  0  0  0  0  0  0  0
    0.0000    0.0000    0.0000 H   0  0  0  0  0  0  0  0  0  0  0  0
    0.0000    0.0000    0.0000 H   0  0  0  0  0  0  0  0  0  0  0  0
    0.0000    0.0000    0.0000 H   0  0  0  0  0  0  0  0  0  0  0  0
    0.0000    0.0000    0.0000 H   0  0  0  0  0  0  0  0  0  0  0  0
    0.0000    0.0000    0.0000 H   0  0  0  0  0  0  0  0  0  0  0  0
    0.0000    0.0000    0.0000 H   0  0  0  0  0  0  0  0  0  0  0  0
    0.0000    0.0000    0.0000 H   0  0  0  0  0  0  0  0  0  0  0  0
    0.0000    0.0000    0.0000 H   0  0  0  0  0  0  0  0  0  0  0  0
    0.0000    0.0000    0.0000 H   0  0  0  0  0  0  0  0  0  0  0  0
    0.0000    0.0000    0.0000 H   0  0  0  0  0  0  0  0  0  0  0  0
    0.0000    0.0000    0.0000 H   0  0  0  0  0  0  0  0  0  0  0  0
    0.0000    0.0000    0.0000 H   0  0  0  0  0  0  0  0  0  0  0  0
    0.0000    0.0000    0.0000 H   0  0  0  0  0  0  0  0  0  0  0  0
    0.0000    0.0000    0.0000 H   0  0  0  0  0  0  0  0  0  0  0  0
    0.0000    0.0000    0.0000 H   0  0  0  0  0  0  0  0  0  0  0  0
    0.0000    0.0000    0.0000 H   0  0  0  0  0  0  0  0  0  0  0  0
    0.0000    0.0000    0.0000 H   0  0  0  0  0  0  0  0  0  0  0  0
    0.0000    0.0000    0.0000 H   0  0  0  0  0  0  0  0  0  0  0  0
    0.0000    0.0000    0.0000 H   0  0  0  0  0  0  0  0  0  0  0  0
    0.0000    0.0000    0.0000 H   0  0  0  0  0  0  0  0  0  0  0  0
    0.0000    0.0000    0.0000 H   0  0  0  0  0  0  0  0  0  0  0  0
    0.0000    0.0000    0.0000 H   0  0  0  0  0  0  0  0  0  0  0  0
  7  1  2  3
  9  8  1  0
 12 10  1  0
 13 11  1  0
 18  2  1  1
 18 10  1  0
 19  3  1  1
 20  8  1  0
 20 14  1  0
 21  9  1  0
 21 15  1  0
 22 14  1  0
 22 15  1  0
 23 11  1  0
 24 16  1  0
 25 17  1  0
 26 23  1  0
 27 19  1  0
 28  4  1  1
 28  7  1  0
 28 16  1  0
 28 27  1  0
 29  5  1  1
 29 18  1  0
 29 24  1  0
 29 26  1  0
 30 12  1  1
 30 13  1  0
 30 19  1  0
 30 26  1  0
 31  6  1  0
 31 20  1  0
 31 21  1  0
 32 23  2  0
 33 25  2  0
 27 34  1  6
 24 35  1  6
 35 25  1  0
 36 17  1  0
 22 36  1  1
  1 37  1  0
  1 38  1  0
  2 39  1  0
  2 40  1  0
  2 41  1  0
  3 42  1  0
  3 43  1  0
  3 44  1  0
  4 45  1  0
  4 46  1  0
  4 47  1  0
  5 48  1  0
  5 49  1  0
  5 50  1  0
  6 51  1  0
  6 52  1  0
  6 53  1  0
  7 54  1  0
  8 55  1  0
  8 56  1  0
  9 57  1  0
  9 58  1  0
 10 59  1  0
 10 60  1  0
 11 61  1  0
 11 62  1  0
 12 63  1  0
 12 64  1  0
 13 65  1  0
 13 66  1  0
 14 67  1  0
 14 68  1  0
 15 69  1  0
 15 70  1  0
 16 71  1  0
 16 72  1  0
 17 73  1  0
 17 74  1  0
 18 75  1  0
 19 76  1  0
 20 77  1  6
 21 78  1  1
 22 79  1  0
 24 80  1  0
 26 81  1  6
 27 82  1  0
 34 83  1  0
M  END
>  <ALOGPS_LOGP>  (1) 
4.63

>  <ALOGPS_LOGS>  (1) 
-6.12

>  <ALOGPS_SOLUBILITY>  (1) 
3.94e-04 g/l

>  <DATABASE_ID>  (1) 
DB01256

>  <DATABASE_NAME>  (1) 
drugbank

>  <DRUGBANK_ID>  (1) 
DB01256

>  <DRUG_GROUPS>  (1) 
approved

>  <EXACT_MASS>  (1) 
517.322579687

>  <FORMULA>  (1) 
C30H47NO4S

>  <GENERIC_NAME>  (1) 
Retapamulin

>  <INCHI_IDENTIFIER>  (1) 
InChI=1S/C30H47NO4S/c1-7-28(4)16-24(35-25(33)17-36-22-14-20-8-9-21(15-22)31(20)6)29(5)18(2)10-12-30(19(3)27(28)34)13-11-23(32)26(29)30/h7,18-22,24,26-27,34H,1,8-17H2,2-6H3/t18-,19+,20-,21+,22-,24-,26+,27+,28-,29+,30+/m1/s1

>  <INCHI_KEY>  (1) 
STZYTFJPGGDRJD-NHUWBDDWSA-N

>  <JCHEM_ACCEPTOR_COUNT>  (1) 
4

>  <JCHEM_AVERAGE_POLARIZABILITY>  (1) 
57.94334355863039

>  <JCHEM_BIOAVAILABILITY>  (1) 
1

>  <JCHEM_DONOR_COUNT>  (1) 
1

>  <JCHEM_FORMAL_CHARGE>  (1) 
0

>  <JCHEM_GHOSE_FILTER>  (1) 
0

>  <JCHEM_IUPAC>  (1) 
(1S,2R,3S,4S,6R,7R,8R,14R)-4-ethenyl-3-hydroxy-2,4,7,14-tetramethyl-9-oxotricyclo[5.4.3.0ยน,โธ]tetradecan-6-yl 2-{[(1R,3S,5S)-8-methyl-8-azabicyclo[3.2.1]octan-3-yl]sulfanyl}acetate

>  <JCHEM_LOGP>  (1) 
4.373434360666666

>  <JCHEM_MDDR_LIKE_RULE>  (1) 
1

>  <JCHEM_NUMBER_OF_RINGS>  (1) 
5

>  <JCHEM_PHYSIOLOGICAL_CHARGE>  (1) 
1

>  <JCHEM_PKA>  (1) 
19.235285869121373

>  <JCHEM_PKA_STRONGEST_ACIDIC>  (1) 
14.425538704648119

>  <JCHEM_PKA_STRONGEST_BASIC>  (1) 
9.686419413341952

>  <JCHEM_POLAR_SURFACE_AREA>  (1) 
66.84

>  <JCHEM_REFRACTIVITY>  (1) 
145.45149999999998

>  <JCHEM_ROTATABLE_BOND_COUNT>  (1) 
6

>  <JCHEM_RULE_OF_FIVE>  (1) 
0

>  <JCHEM_TRADITIONAL_IUPAC>  (1) 
altabax (glaxo)

>  <JCHEM_VEBER_RULE>  (1) 
0

>  <MOLECULAR_WEIGHT>  (1) 
517.763

>  <PRODUCTS>  (1) 
Altabax; Altargo

>  <SMILES>  (1) 
[H][C@]12CC[C@]([H])(C[C@]([H])(C1)SCC(=O)O[C@]1([H])C[C@@](C)(C=C)[C@@]([H])(O)[C@]([H])(C)[C@]34CCC(=O)[C@@]3([H])[C@@]1(C)[C@]([H])(C)CC4)N2C

$$$$
