
     RDKit          2D

 63 65  0  0  1  0  0  0  0  0999 V2000
   -0.8250    0.8250    0.0000 C   0  0  0  0  0  0  0  0  0  0  0  0
    0.0000    0.0000    0.0000 N   0  0  0  0  0  0  0  0  0  0  0  0
    0.0000    0.8250    0.0000 C   0  0  0  0  0  0  0  0  0  0  0  0
   -0.8250    0.0000    0.0000 C   0  0  0  0  0  0  0  0  0  0  0  0
    1.2696    0.4125    0.0000 C   0  0  0  0  0  0  0  0  0  0  0  0
    0.7846    1.0800    0.0000 S   0  0  0  0  0  0  0  0  0  0  0  0
    1.9883    0.0076    0.0000 C   0  0  0  0  0  0  0  0  0  0  0  0
    1.9883    0.8175    0.0000 C   0  0  0  0  0  0  0  0  0  0  0  0
   -1.4083   -0.5833    0.0000 O   0  0  0  0  0  0  0  0  0  0  0  0
   -1.5395    1.2375    0.0000 N   0  0  0  0  0  0  0  0  0  0  0  0
   -2.2540    0.8250    0.0000 C   0  0  0  0  0  0  0  0  0  0  0  0
   -2.9684    1.2375    0.0000 N   0  0  0  0  0  0  0  0  0  0  0  0
   -3.6501    0.7728    0.0000 C   0  0  0  0  0  0  0  0  0  0  0  0
   -2.9068    2.0602    0.0000 C   0  0  0  0  0  0  0  0  0  0  0  0
   -3.5116    2.6213    0.0000 C   0  0  0  0  0  0  0  0  0  0  0  0
   -4.4384    1.0159    0.0000 C   0  0  0  0  0  0  0  0  0  0  0  0
   -4.3273    2.4984    0.0000 C   0  0  0  0  0  0  0  0  0  0  0  0
   -4.7398    1.7839    0.0000 C   0  0  0  0  0  0  0  0  0  0  0  0
    3.6425   -1.0799    0.0000 C   0  0  0  0  0  0  0  0  0  0  0  0
    4.3570   -1.4924    0.0000 C   0  0  0  0  0  0  0  0  0  0  0  0
    2.9280   -1.4924    0.0000 O   0  0  0  0  0  0  0  0  0  0  0  0
    2.2135   -1.0799    0.0000 C   0  0  0  0  0  0  0  0  0  0  0  0
    3.6425   -0.2549    0.0000 O   0  0  0  0  0  0  0  0  0  0  0  0
    5.0714   -1.0799    0.0000 C   0  0  0  0  0  0  0  0  0  0  0  0
    4.3570   -2.3174    0.0000 C   0  0  0  0  0  0  0  0  0  0  0  0
    0.7846   -0.2549    0.0000 C   0  0  0  0  0  0  0  0  0  0  0  0
    0.7846   -1.0799    0.0000 C   0  0  0  0  0  0  0  0  0  0  0  0
    1.4991   -1.4924    0.0000 O   0  0  0  0  0  0  0  0  0  0  0  0
    0.0700   -1.4923    0.0000 O   0  0  0  0  0  0  0  0  0  0  0  0
    5.0714   -1.9049    0.0000 C   0  0  0  0  0  0  0  0  0  0  0  0
    0.0000    0.0000    0.0000 H   0  0  0  0  0  0  0  0  0  0  0  0
    0.0000    0.0000    0.0000 H   0  0  0  0  0  0  0  0  0  0  0  0
    0.0000    0.0000    0.0000 H   0  0  0  0  0  0  0  0  0  0  0  0
    0.0000    0.0000    0.0000 H   0  0  0  0  0  0  0  0  0  0  0  0
    0.0000    0.0000    0.0000 H   0  0  0  0  0  0  0  0  0  0  0  0
    0.0000    0.0000    0.0000 H   0  0  0  0  0  0  0  0  0  0  0  0
    0.0000    0.0000    0.0000 H   0  0  0  0  0  0  0  0  0  0  0  0
    0.0000    0.0000    0.0000 H   0  0  0  0  0  0  0  0  0  0  0  0
    0.0000    0.0000    0.0000 H   0  0  0  0  0  0  0  0  0  0  0  0
    0.0000    0.0000    0.0000 H   0  0  0  0  0  0  0  0  0  0  0  0
    0.0000    0.0000    0.0000 H   0  0  0  0  0  0  0  0  0  0  0  0
    0.0000    0.0000    0.0000 H   0  0  0  0  0  0  0  0  0  0  0  0
    0.0000    0.0000    0.0000 H   0  0  0  0  0  0  0  0  0  0  0  0
    0.0000    0.0000    0.0000 H   0  0  0  0  0  0  0  0  0  0  0  0
    0.0000    0.0000    0.0000 H   0  0  0  0  0  0  0  0  0  0  0  0
    0.0000    0.0000    0.0000 H   0  0  0  0  0  0  0  0  0  0  0  0
    0.0000    0.0000    0.0000 H   0  0  0  0  0  0  0  0  0  0  0  0
    0.0000    0.0000    0.0000 H   0  0  0  0  0  0  0  0  0  0  0  0
    0.0000    0.0000    0.0000 H   0  0  0  0  0  0  0  0  0  0  0  0
    0.0000    0.0000    0.0000 H   0  0  0  0  0  0  0  0  0  0  0  0
    0.0000    0.0000    0.0000 H   0  0  0  0  0  0  0  0  0  0  0  0
    0.0000    0.0000    0.0000 H   0  0  0  0  0  0  0  0  0  0  0  0
    0.0000    0.0000    0.0000 H   0  0  0  0  0  0  0  0  0  0  0  0
    0.0000    0.0000    0.0000 H   0  0  0  0  0  0  0  0  0  0  0  0
    0.0000    0.0000    0.0000 H   0  0  0  0  0  0  0  0  0  0  0  0
    0.0000    0.0000    0.0000 H   0  0  0  0  0  0  0  0  0  0  0  0
    0.0000    0.0000    0.0000 H   0  0  0  0  0  0  0  0  0  0  0  0
    0.0000    0.0000    0.0000 H   0  0  0  0  0  0  0  0  0  0  0  0
    0.0000    0.0000    0.0000 H   0  0  0  0  0  0  0  0  0  0  0  0
    0.0000    0.0000    0.0000 H   0  0  0  0  0  0  0  0  0  0  0  0
    0.0000    0.0000    0.0000 H   0  0  0  0  0  0  0  0  0  0  0  0
    0.0000    0.0000    0.0000 H   0  0  0  0  0  0  0  0  0  0  0  0
    0.0000    0.0000    0.0000 H   0  0  0  0  0  0  0  0  0  0  0  0
  3  1  1  0
  1  4  1  0
  4  2  1  0
 26  2  1  0
  3  2  1  0
  3  6  1  0
  9  4  2  0
  5 26  1  0
  6  5  1  0
  7  5  1  0
  8  5  1  0
  1 10  1  6
 11 10  2  0
 12 11  1  0
 13 12  1  0
 14 12  1  0
 16 13  1  0
 15 14  1  0
 17 15  1  0
 18 16  1  0
 18 17  1  0
 21 19  1  0
 20 19  1  0
 23 19  2  0
 24 20  1  0
 25 20  1  0
 22 28  1  0
 22 21  1  0
 26 27  1  1
 28 27  1  0
 29 27  2  0
 20 30  1  0
  1 31  1  0
  3 32  1  1
  7 33  1  0
  7 34  1  0
  7 35  1  0
  8 36  1  0
  8 37  1  0
  8 38  1  0
 11 39  1  0
 13 40  1  0
 13 41  1  0
 14 42  1  0
 14 43  1  0
 15 44  1  0
 15 45  1  0
 16 46  1  0
 16 47  1  0
 17 48  1  0
 17 49  1  0
 18 50  1  0
 18 51  1  0
 22 52  1  0
 22 53  1  0
 24 54  1  0
 24 55  1  0
 24 56  1  0
 25 57  1  0
 25 58  1  0
 25 59  1  0
 26 60  1  0
 30 61  1  0
 30 62  1  0
 30 63  1  0
M  END
>  <ALOGPS_LOGP>  (1) 
3.23

>  <ALOGPS_LOGS>  (1) 
-3.92

>  <ALOGPS_SOLUBILITY>  (1) 
5.26e-02 g/l

>  <DATABASE_ID>  (1) 
DB01605

>  <DATABASE_NAME>  (1) 
drugbank

>  <DRUGBANK_ID>  (1) 
DB01605

>  <DRUG_GROUPS>  (1) 
approved

>  <EXACT_MASS>  (1) 
439.214091871

>  <FORMULA>  (1) 
C21H33N3O5S

>  <GENERIC_NAME>  (1) 
Pivmecillinam

>  <INCHI_IDENTIFIER>  (1) 
InChI=1S/C21H33N3O5S/c1-20(2,3)19(27)29-13-28-18(26)15-21(4,5)30-17-14(16(25)24(15)17)22-12-23-10-8-6-7-9-11-23/h12,14-15,17H,6-11,13H2,1-5H3/t14-,15+,17-/m1/s1

>  <INCHI_KEY>  (1) 
NPGNOVNWUSPMDP-HLLBOEOZSA-N

>  <JCHEM_ACCEPTOR_COUNT>  (1) 
5

>  <JCHEM_AVERAGE_POLARIZABILITY>  (1) 
47.70248610180789

>  <JCHEM_BIOAVAILABILITY>  (1) 
1

>  <JCHEM_DONOR_COUNT>  (1) 
0

>  <JCHEM_FORMAL_CHARGE>  (1) 
0

>  <JCHEM_GHOSE_FILTER>  (1) 
1

>  <JCHEM_IUPAC>  (1) 
[(2S,5R,6R)-6-[(azepan-1-ylmethylidene)amino]-3,3-dimethyl-7-oxo-4-thia-1-azabicyclo[3.2.0]heptane-2-carbonyloxy]methyl 2,2-dimethylpropanoate

>  <JCHEM_LOGP>  (1) 
2.9085426906666667

>  <JCHEM_MDDR_LIKE_RULE>  (1) 
1

>  <JCHEM_NUMBER_OF_RINGS>  (1) 
3

>  <JCHEM_PHYSIOLOGICAL_CHARGE>  (1) 
1

>  <JCHEM_PKA_STRONGEST_ACIDIC>  (1) 
13.660257128507617

>  <JCHEM_PKA_STRONGEST_BASIC>  (1) 
7.914073683805415

>  <JCHEM_POLAR_SURFACE_AREA>  (1) 
88.50999999999999

>  <JCHEM_REFRACTIVITY>  (1) 
113.0317

>  <JCHEM_ROTATABLE_BOND_COUNT>  (1) 
7

>  <JCHEM_RULE_OF_FIVE>  (1) 
1

>  <JCHEM_TRADITIONAL_IUPAC>  (1) 
pivmecilinamo

>  <JCHEM_VEBER_RULE>  (1) 
0

>  <MOLECULAR_WEIGHT>  (1) 
439.569

>  <PRODUCTS>  (1) 
Selexid; Selexid Tab 185mg

>  <SALTS>  (1) 
Pivmecillinam hydrochloride

>  <SMILES>  (1) 
[H]C(=N[C@@H]1C(=O)N2[C@@H](C(=O)OCOC(=O)C(C)(C)C)C(C)(C)S[C@]12[H])N1CCCCCC1

>  <SYNONYMS>  (1) 
Amdinocillin pivoxil; amdinocillin, pivaloyloxymethyl ester; Pivmecilinamo; Pivmecillinamum

$$$$
