1184
     RDKit          2D

 54 58  0  0  0  0  0  0  0  0999 V2000
    1.6500   -3.7973    0.0000 Cl  0  0  0  0  0  0  0  0  0  0  0  0
    5.8806   -2.9723    0.0000 O   0  0  0  0  0  0  0  0  0  0  0  0
    7.9892    0.5823    0.0000 O   0  0  0  0  0  0  0  0  0  0  0  0
    5.3431    0.0442    0.0000 N   0  0  0  0  0  0  0  0  0  0  0  0
    4.5741   -2.3084    0.0000 N   0  0  0  0  0  0  0  0  0  0  0  0
    4.5741   -3.6362    0.0000 N   0  0  0  0  0  0  0  0  0  0  0  0
    7.4702    1.9529    0.0000 N   0  0  0  0  0  0  0  0  0  0  0  0
    8.7903    1.8095    0.0000 N   0  0  0  0  0  0  0  0  0  0  0  0
    4.8305   -1.5242    0.0000 C   0  0  0  0  0  0  0  0  0  0  0  0
    4.2795   -0.9102    0.0000 C   0  0  0  0  0  0  0  0  0  0  0  0
    5.6378   -1.3540    0.0000 C   0  0  0  0  0  0  0  0  0  0  0  0
    4.5358   -0.1259    0.0000 C   0  0  0  0  0  0  0  0  0  0  0  0
    5.8940   -0.5698    0.0000 C   0  0  0  0  0  0  0  0  0  0  0  0
    5.5993    0.8284    0.0000 C   0  0  0  0  0  0  0  0  0  0  0  0
    6.4067    0.9985    0.0000 C   0  0  0  0  0  0  0  0  0  0  0  0
    3.7935   -2.5598    0.0000 C   0  0  0  0  0  0  0  0  0  0  0  0
    5.0556   -2.9723    0.0000 C   0  0  0  0  0  0  0  0  0  0  0  0
    6.6629    1.7827    0.0000 C   0  0  0  0  0  0  0  0  0  0  0  0
    3.7935   -3.3848    0.0000 C   0  0  0  0  0  0  0  0  0  0  0  0
    3.0791   -2.1473    0.0000 C   0  0  0  0  0  0  0  0  0  0  0  0
    3.0791   -3.7973    0.0000 C   0  0  0  0  0  0  0  0  0  0  0  0
    7.8044    2.7018    0.0000 C   0  0  0  0  0  0  0  0  0  0  0  0
    2.3645   -2.5598    0.0000 C   0  0  0  0  0  0  0  0  0  0  0  0
    8.0782    1.4025    0.0000 C   0  0  0  0  0  0  0  0  0  0  0  0
    8.6247    2.6127    0.0000 C   0  0  0  0  0  0  0  0  0  0  0  0
    2.3645   -3.3848    0.0000 C   0  0  0  0  0  0  0  0  0  0  0  0
    7.4715    3.4567    0.0000 C   0  0  0  0  0  0  0  0  0  0  0  0
    9.1119    3.2785    0.0000 C   0  0  0  0  0  0  0  0  0  0  0  0
    7.9587    4.1225    0.0000 C   0  0  0  0  0  0  0  0  0  0  0  0
    8.7789    4.0333    0.0000 C   0  0  0  0  0  0  0  0  0  0  0  0
    0.0000    0.0000    0.0000 H   0  0  0  0  0  0  0  0  0  0  0  0
    0.0000    0.0000    0.0000 H   0  0  0  0  0  0  0  0  0  0  0  0
    0.0000    0.0000    0.0000 H   0  0  0  0  0  0  0  0  0  0  0  0
    0.0000    0.0000    0.0000 H   0  0  0  0  0  0  0  0  0  0  0  0
    0.0000    0.0000    0.0000 H   0  0  0  0  0  0  0  0  0  0  0  0
    0.0000    0.0000    0.0000 H   0  0  0  0  0  0  0  0  0  0  0  0
    0.0000    0.0000    0.0000 H   0  0  0  0  0  0  0  0  0  0  0  0
    0.0000    0.0000    0.0000 H   0  0  0  0  0  0  0  0  0  0  0  0
    0.0000    0.0000    0.0000 H   0  0  0  0  0  0  0  0  0  0  0  0
    0.0000    0.0000    0.0000 H   0  0  0  0  0  0  0  0  0  0  0  0
    0.0000    0.0000    0.0000 H   0  0  0  0  0  0  0  0  0  0  0  0
    0.0000    0.0000    0.0000 H   0  0  0  0  0  0  0  0  0  0  0  0
    0.0000    0.0000    0.0000 H   0  0  0  0  0  0  0  0  0  0  0  0
    0.0000    0.0000    0.0000 H   0  0  0  0  0  0  0  0  0  0  0  0
    0.0000    0.0000    0.0000 H   0  0  0  0  0  0  0  0  0  0  0  0
    0.0000    0.0000    0.0000 H   0  0  0  0  0  0  0  0  0  0  0  0
    0.0000    0.0000    0.0000 H   0  0  0  0  0  0  0  0  0  0  0  0
    0.0000    0.0000    0.0000 H   0  0  0  0  0  0  0  0  0  0  0  0
    0.0000    0.0000    0.0000 H   0  0  0  0  0  0  0  0  0  0  0  0
    0.0000    0.0000    0.0000 H   0  0  0  0  0  0  0  0  0  0  0  0
    0.0000    0.0000    0.0000 H   0  0  0  0  0  0  0  0  0  0  0  0
    0.0000    0.0000    0.0000 H   0  0  0  0  0  0  0  0  0  0  0  0
    0.0000    0.0000    0.0000 H   0  0  0  0  0  0  0  0  0  0  0  0
    0.0000    0.0000    0.0000 H   0  0  0  0  0  0  0  0  0  0  0  0
  1 26  1  0
  2 17  2  0
  3 24  2  0
  4 12  1  0
  4 13  1  0
  4 14  1  0
  5  9  1  0
  5 16  1  0
  5 17  1  0
  6 17  1  0
  6 19  1  0
  7 18  1  0
  7 22  1  0
  7 24  1  0
  8 24  1  0
  8 25  1  0
  9 10  1  0
  9 11  1  0
 10 12  1  0
 11 13  1  0
 14 15  1  0
 15 18  1  0
 16 19  2  0
 16 20  1  0
 19 21  1  0
 20 23  2  0
 21 26  2  0
 22 25  2  0
 22 27  1  0
 23 26  1  0
 25 28  1  0
 27 29  2  0
 28 30  2  0
 29 30  1  0
  6 31  1  0
  8 32  1  0
  9 33  1  0
 10 34  1  0
 10 35  1  0
 11 36  1  0
 11 37  1  0
 12 38  1  0
 12 39  1  0
 13 40  1  0
 13 41  1  0
 14 42  1  0
 14 43  1  0
 15 44  1  0
 15 45  1  0
 18 46  1  0
 18 47  1  0
 20 48  1  0
 21 49  1  0
 23 50  1  0
 27 51  1  0
 28 52  1  0
 29 53  1  0
 30 54  1  0
M  END
>  <ALOGPS_LOGP>  (1) 
3.70

>  <ALOGPS_LOGS>  (1) 
-3.66

>  <ALOGPS_SOLUBILITY>  (1) 
9.25e-02 g/l

>  <DATABASE_ID>  (1) 
DB01184

>  <DATABASE_NAME>  (1) 
drugbank

>  <DRUGBANK_ID>  (1) 
DB01184

>  <DRUG_GROUPS>  (1) 
approved; investigational; vet_approved

>  <EXACT_MASS>  (1) 
425.161852744

>  <FORMULA>  (1) 
C22H24ClN5O2

>  <GENERIC_NAME>  (1) 
Domperidone

>  <INCHI_IDENTIFIER>  (1) 
InChI=1S/C22H24ClN5O2/c23-15-6-7-20-18(14-15)25-22(30)28(20)16-8-12-26(13-9-16)10-3-11-27-19-5-2-1-4-17(19)24-21(27)29/h1-2,4-7,14,16H,3,8-13H2,(H,24,29)(H,25,30)

>  <INCHI_KEY>  (1) 
FGXWKSZFVQUSTL-UHFFFAOYSA-N

>  <INTERNATIONAL_BRANDS>  (1) 
Euciton; Moperidona; Motilium; Nauzelin

>  <JCHEM_ACCEPTOR_COUNT>  (1) 
3

>  <JCHEM_AVERAGE_POLARIZABILITY>  (1) 
45.6114064047827

>  <JCHEM_BIOAVAILABILITY>  (1) 
1

>  <JCHEM_DONOR_COUNT>  (1) 
2

>  <JCHEM_FORMAL_CHARGE>  (1) 
0

>  <JCHEM_GHOSE_FILTER>  (1) 
1

>  <JCHEM_IUPAC>  (1) 
5-chloro-1-{1-[3-(2-oxo-2,3-dihydro-1H-1,3-benzodiazol-1-yl)propyl]piperidin-4-yl}-2,3-dihydro-1H-1,3-benzodiazol-2-one

>  <JCHEM_LOGP>  (1) 
2.900103093

>  <JCHEM_MDDR_LIKE_RULE>  (1) 
0

>  <JCHEM_NUMBER_OF_RINGS>  (1) 
5

>  <JCHEM_PHYSIOLOGICAL_CHARGE>  (1) 
1

>  <JCHEM_PKA>  (1) 
13.142072329278523

>  <JCHEM_PKA_STRONGEST_ACIDIC>  (1) 
12.524702280602334

>  <JCHEM_PKA_STRONGEST_BASIC>  (1) 
7.0286370818592845

>  <JCHEM_POLAR_SURFACE_AREA>  (1) 
67.92

>  <JCHEM_REFRACTIVITY>  (1) 
119.37370000000003

>  <JCHEM_ROTATABLE_BOND_COUNT>  (1) 
5

>  <JCHEM_RULE_OF_FIVE>  (1) 
1

>  <JCHEM_TRADITIONAL_IUPAC>  (1) 
motilium

>  <JCHEM_VEBER_RULE>  (1) 
0

>  <MOLECULAR_WEIGHT>  (1) 
425.911

>  <PRODUCTS>  (1) 
Apo-domperidone - Tab 10mg; Ava-domperidone; Bio-domperidone; Dom-domperidone; Domperidone; Domperidone-10; Ftp-domperidone Maleate; Ipg-domperidone; Jamp-domperidone; Mar-domperidone; Motilidone; Motilium Tab 10mg; Mylan-domperidone; Nu-domperidone 10 Mg Tablets; PMS-domperidone; Priva-domperidone; Prz-domperidone; Ran-domperidone; Ratio-domperidone; Teva-domperidone

>  <SECONDARY_ACCESSION_NUMBERS>  (1) 
APRD00418

>  <SMILES>  (1) 
ClC1=CC2=C(C=C1)N(C1CCN(CCCN3C(=O)NC4=CC=CC=C34)CC1)C(=O)N2

$$$$
