 
     RDKit          2D

 80 83  0  0  1  0  0  0  0  0999 V2000
   14.8883   -8.3120    0.0000 C   0  0  0  0  0  0  0  0  0  0  0  0
   14.8883   -9.1437    0.0000 C   0  0  0  0  0  0  0  0  0  0  0  0
   14.1700   -7.8998    0.0000 C   0  0  0  0  0  0  0  0  0  0  0  0
   15.6105   -7.8885    0.0000 O   0  0  0  0  0  0  0  0  0  0  0  0
   15.6143   -9.5596    0.0000 C   0  0  0  0  0  0  0  0  0  0  0  0
   14.1700   -9.5634    0.0000 C   0  0  0  0  0  0  0  0  0  0  0  0
   13.4554   -8.3120    0.0000 C   0  0  0  0  0  0  0  0  0  0  0  0
   14.1662   -7.0794    0.0000 C   0  0  0  0  0  0  0  0  0  0  0  0
   16.3782   -8.3044    0.0000 C   0  0  0  0  0  0  0  0  0  0  0  0
   16.3440   -9.1475    0.0000 C   0  0  0  0  0  0  0  0  0  0  0  0
   15.6143  -10.3839    0.0000 O   0  0  0  0  0  0  0  0  0  0  0  0
   13.4554   -9.1437    0.0000 C   0  0  0  0  0  0  0  0  0  0  0  0
   12.7445   -7.9037    0.0000 O   0  0  0  0  0  0  0  0  0  0  0  0
   17.0472   -7.8923    0.0000 O   0  0  0  0  0  0  0  0  0  0  0  0
   17.3044   -9.5067    0.0000 N   0  0  0  0  0  0  0  0  0  0  0  0
   12.0339   -8.3157    0.0000 C   0  0  0  0  0  0  0  0  0  0  0  0
   18.0189   -9.0947    0.0000 C   0  0  0  0  0  0  0  0  0  0  0  0
   12.0339   -9.1475    0.0000 C   0  0  0  0  0  0  0  0  0  0  0  0
   11.3116   -7.9037    0.0000 O   0  0  0  0  0  0  0  0  0  0  0  0
   18.7297   -9.5067    0.0000 C   0  0  0  0  0  0  0  0  0  0  0  0
   18.0189   -8.2742    0.0000 O   0  0  0  0  0  0  0  0  0  0  0  0
   11.3116   -9.5672    0.0000 C   0  0  0  0  0  0  0  0  0  0  0  0
   12.7484   -9.5559    0.0000 O   0  0  0  0  0  0  0  0  0  0  0  0
   10.6009   -8.3157    0.0000 C   0  0  0  0  0  0  0  0  0  0  0  0
   18.7335  -10.3308    0.0000 C   0  0  0  0  0  0  0  0  0  0  0  0
   19.4367   -9.0984    0.0000 C   0  0  0  0  0  0  0  0  0  0  0  0
   10.6009   -9.1475    0.0000 C   0  0  0  0  0  0  0  0  0  0  0  0
   11.3116  -10.3914    0.0000 O   0  0  0  0  0  0  0  0  0  0  0  0
   10.1094   -7.4612    0.0000 C   0  0  0  0  0  0  0  0  0  0  0  0
    9.7502   -8.4821    0.0000 C   0  0  0  0  0  0  0  0  0  0  0  0
   19.4405  -10.7430    0.0000 C   0  0  0  0  0  0  0  0  0  0  0  0
   20.1513   -9.5029    0.0000 C   0  0  0  0  0  0  0  0  0  0  0  0
    9.8863   -9.5559    0.0000 O   0  0  0  0  0  0  0  0  0  0  0  0
   10.5971  -10.7997    0.0000 C   0  0  0  0  0  0  0  0  0  0  0  0
   20.1551  -10.3271    0.0000 C   0  0  0  0  0  0  0  0  0  0  0  0
   19.4405  -11.5672    0.0000 C   0  0  0  0  0  0  0  0  0  0  0  0
    9.0469   -9.5596    0.0000 C   0  0  0  0  0  0  0  0  0  0  0  0
   10.5934  -11.6202    0.0000 N   0  0  0  0  0  0  0  0  0  0  0  0
    9.8863  -10.3877    0.0000 O   0  0  0  0  0  0  0  0  0  0  0  0
   20.8658  -10.7355    0.0000 O   0  0  0  0  0  0  0  0  0  0  0  0
   20.1551  -11.9794    0.0000 C   0  0  0  0  0  0  0  0  0  0  0  0
   20.1551  -12.7998    0.0000 C   0  0  0  0  0  0  0  0  0  0  0  0
   20.8658  -13.2119    0.0000 C   0  0  0  0  0  0  0  0  0  0  0  0
   19.4405  -13.2119    0.0000 C   0  0  0  0  0  0  0  0  0  0  0  0
    0.0000    0.0000    0.0000 H   0  0  0  0  0  0  0  0  0  0  0  0
    0.0000    0.0000    0.0000 H   0  0  0  0  0  0  0  0  0  0  0  0
    0.0000    0.0000    0.0000 H   0  0  0  0  0  0  0  0  0  0  0  0
    0.0000    0.0000    0.0000 H   0  0  0  0  0  0  0  0  0  0  0  0
    0.0000    0.0000    0.0000 H   0  0  0  0  0  0  0  0  0  0  0  0
    0.0000    0.0000    0.0000 H   0  0  0  0  0  0  0  0  0  0  0  0
    0.0000    0.0000    0.0000 H   0  0  0  0  0  0  0  0  0  0  0  0
    0.0000    0.0000    0.0000 H   0  0  0  0  0  0  0  0  0  0  0  0
    0.0000    0.0000    0.0000 H   0  0  0  0  0  0  0  0  0  0  0  0
    0.0000    0.0000    0.0000 H   0  0  0  0  0  0  0  0  0  0  0  0
    0.0000    0.0000    0.0000 H   0  0  0  0  0  0  0  0  0  0  0  0
    0.0000    0.0000    0.0000 H   0  0  0  0  0  0  0  0  0  0  0  0
    0.0000    0.0000    0.0000 H   0  0  0  0  0  0  0  0  0  0  0  0
    0.0000    0.0000    0.0000 H   0  0  0  0  0  0  0  0  0  0  0  0
    0.0000    0.0000    0.0000 H   0  0  0  0  0  0  0  0  0  0  0  0
    0.0000    0.0000    0.0000 H   0  0  0  0  0  0  0  0  0  0  0  0
    0.0000    0.0000    0.0000 H   0  0  0  0  0  0  0  0  0  0  0  0
    0.0000    0.0000    0.0000 H   0  0  0  0  0  0  0  0  0  0  0  0
    0.0000    0.0000    0.0000 H   0  0  0  0  0  0  0  0  0  0  0  0
    0.0000    0.0000    0.0000 H   0  0  0  0  0  0  0  0  0  0  0  0
    0.0000    0.0000    0.0000 H   0  0  0  0  0  0  0  0  0  0  0  0
    0.0000    0.0000    0.0000 H   0  0  0  0  0  0  0  0  0  0  0  0
    0.0000    0.0000    0.0000 H   0  0  0  0  0  0  0  0  0  0  0  0
    0.0000    0.0000    0.0000 H   0  0  0  0  0  0  0  0  0  0  0  0
    0.0000    0.0000    0.0000 H   0  0  0  0  0  0  0  0  0  0  0  0
    0.0000    0.0000    0.0000 H   0  0  0  0  0  0  0  0  0  0  0  0
    0.0000    0.0000    0.0000 H   0  0  0  0  0  0  0  0  0  0  0  0
    0.0000    0.0000    0.0000 H   0  0  0  0  0  0  0  0  0  0  0  0
    0.0000    0.0000    0.0000 H   0  0  0  0  0  0  0  0  0  0  0  0
    0.0000    0.0000    0.0000 H   0  0  0  0  0  0  0  0  0  0  0  0
    0.0000    0.0000    0.0000 H   0  0  0  0  0  0  0  0  0  0  0  0
    0.0000    0.0000    0.0000 H   0  0  0  0  0  0  0  0  0  0  0  0
    0.0000    0.0000    0.0000 H   0  0  0  0  0  0  0  0  0  0  0  0
    0.0000    0.0000    0.0000 H   0  0  0  0  0  0  0  0  0  0  0  0
    0.0000    0.0000    0.0000 H   0  0  0  0  0  0  0  0  0  0  0  0
    0.0000    0.0000    0.0000 H   0  0  0  0  0  0  0  0  0  0  0  0
  1  2  1  0
  1  3  2  0
  1  4  1  0
  2  5  1  0
  2  6  2  0
  3  7  1  0
  3  8  1  0
  4  9  1  0
  5 10  2  0
  5 11  1  0
  6 12  1  0
  7 13  1  0
  9 14  2  0
 10 15  1  0
 16 13  1  1
 15 17  1  0
 16 18  1  0
 16 19  1  0
 17 20  1  0
 17 21  2  0
 18 22  1  0
 18 23  1  1
 19 24  1  0
 20 25  2  0
 20 26  1  0
 22 27  1  0
 22 28  1  1
 24 29  1  0
 24 30  1  0
 25 31  1  0
 26 32  2  0
 27 33  1  1
 28 34  1  0
 31 35  2  0
 31 36  1  0
 33 37  1  0
 34 38  1  0
 34 39  2  0
 35 40  1  0
 36 41  1  0
 41 42  2  3
 42 43  1  0
 42 44  1  0
  7 12  2  0
  9 10  1  0
 24 27  1  0
 32 35  1  0
  6 45  1  0
  8 46  1  0
  8 47  1  0
  8 48  1  0
 11 49  1  0
 12 50  1  0
 15 51  1  0
 16 52  1  0
 18 53  1  0
 22 54  1  0
 23 55  1  0
 25 56  1  0
 26 57  1  0
 27 58  1  0
 29 59  1  0
 29 60  1  0
 29 61  1  0
 30 62  1  0
 30 63  1  0
 30 64  1  0
 32 65  1  0
 36 66  1  0
 36 67  1  0
 37 68  1  0
 37 69  1  0
 37 70  1  0
 38 71  1  0
 38 72  1  0
 40 73  1  0
 41 74  1  0
 43 75  1  0
 43 76  1  0
 43 77  1  0
 44 78  1  0
 44 79  1  0
 44 80  1  0
M  END
>  <ALOGPS_LOGP>  (1) 
3.07

>  <ALOGPS_LOGS>  (1) 
-4.80

>  <ALOGPS_SOLUBILITY>  (1) 
9.66e-03 g/l

>  <DATABASE_ID>  (1) 
DB01051

>  <DATABASE_NAME>  (1) 
drugbank

>  <DRUGBANK_ID>  (1) 
DB01051

>  <DRUG_GROUPS>  (1) 
approved; investigational; vet_approved

>  <EXACT_MASS>  (1) 
612.231910004

>  <FORMULA>  (1) 
C31H36N2O11

>  <GENERIC_NAME>  (1) 
Novobiocin

>  <INCHI_IDENTIFIER>  (1) 
InChI=1S/C31H36N2O11/c1-14(2)7-8-16-13-17(9-11-19(16)34)27(37)33-21-22(35)18-10-12-20(15(3)24(18)42-28(21)38)41-29-23(36)25(43-30(32)39)26(40-6)31(4,5)44-29/h7,9-13,23,25-26,29,34-36H,8H2,1-6H3,(H2,32,39)(H,33,37)/t23-,25+,26-,29-/m1/s1

>  <INCHI_KEY>  (1) 
YJQPYGGHQPGBLI-KGSXXDOSSA-N

>  <JCHEM_ACCEPTOR_COUNT>  (1) 
9

>  <JCHEM_AVERAGE_POLARIZABILITY>  (1) 
63.97212460401722

>  <JCHEM_BIOAVAILABILITY>  (1) 
1

>  <JCHEM_DONOR_COUNT>  (1) 
5

>  <JCHEM_FORMAL_CHARGE>  (1) 
0

>  <JCHEM_GHOSE_FILTER>  (1) 
0

>  <JCHEM_IUPAC>  (1) 
(3R,4S,5R,6R)-5-hydroxy-6-({4-hydroxy-3-[4-hydroxy-3-(3-methylbut-2-en-1-yl)benzamido]-8-methyl-2-oxo-2H-chromen-7-yl}oxy)-3-methoxy-2,2-dimethyloxan-4-yl carbamate

>  <JCHEM_LOGP>  (1) 
3.2638111659999995

>  <JCHEM_MDDR_LIKE_RULE>  (1) 
1

>  <JCHEM_NUMBER_OF_RINGS>  (1) 
4

>  <JCHEM_PHYSIOLOGICAL_CHARGE>  (1) 
-1

>  <JCHEM_PKA>  (1) 
8.268239692823842

>  <JCHEM_PKA_STRONGEST_ACIDIC>  (1) 
6.964665408693888

>  <JCHEM_PKA_STRONGEST_BASIC>  (1) 
-3.9256041455678363

>  <JCHEM_POLAR_SURFACE_AREA>  (1) 
196.1

>  <JCHEM_REFRACTIVITY>  (1) 
158.24420000000006

>  <JCHEM_ROTATABLE_BOND_COUNT>  (1) 
9

>  <JCHEM_RULE_OF_FIVE>  (1) 
0

>  <JCHEM_TRADITIONAL_IUPAC>  (1) 
novobiocin

>  <JCHEM_VEBER_RULE>  (1) 
0

>  <MOLECULAR_WEIGHT>  (1) 
612.6243

>  <SALTS>  (1) 
Novobiocin sodium

>  <SECONDARY_ACCESSION_NUMBERS>  (1) 
APRD00694

>  <SMILES>  (1) 
CO[C@@H]1[C@@H](OC(N)=O)[C@@H](O)[C@H](OC2=C(C)C3=C(C=C2)C(O)=C(NC(=O)C2=CC=C(O)C(CC=C(C)C)=C2)C(=O)O3)OC1(C)C

>  <SYNONYMS>  (1) 
Novobiocina; Novobiocine; Novobiocinum

$$$$
