1188
     RDKit          2D

 32 33  0  0  0  0  0  0  0  0999 V2000
    4.5080   -1.4438    0.0000 O   0  0  0  0  0  0  0  0  0  0  0  0
    5.9370   -0.6188    0.0000 O   0  0  0  0  0  0  0  0  0  0  0  0
    4.5080   -0.6188    0.0000 N   0  0  0  0  0  0  0  0  0  0  0  0
    3.0791   -0.6188    0.0000 C   0  0  0  0  0  0  0  0  0  0  0  0
    3.0791   -1.4438    0.0000 C   0  0  0  0  0  0  0  0  0  0  0  0
    2.3645   -0.2063    0.0000 C   0  0  0  0  0  0  0  0  0  0  0  0
    2.3645   -1.8563    0.0000 C   0  0  0  0  0  0  0  0  0  0  0  0
    1.6500   -0.6188    0.0000 C   0  0  0  0  0  0  0  0  0  0  0  0
    1.6500   -1.4438    0.0000 C   0  0  0  0  0  0  0  0  0  0  0  0
    3.7935   -0.2063    0.0000 C   0  0  0  0  0  0  0  0  0  0  0  0
    3.7935    0.6188    0.0000 C   0  0  0  0  0  0  0  0  0  0  0  0
    4.5080    1.0313    0.0000 C   0  0  0  0  0  0  0  0  0  0  0  0
    5.2224   -0.2063    0.0000 C   0  0  0  0  0  0  0  0  0  0  0  0
    5.2224    0.6188    0.0000 C   0  0  0  0  0  0  0  0  0  0  0  0
    4.5080    1.8563    0.0000 C   0  0  0  0  0  0  0  0  0  0  0  0
    0.0000    0.0000    0.0000 H   0  0  0  0  0  0  0  0  0  0  0  0
    0.0000    0.0000    0.0000 H   0  0  0  0  0  0  0  0  0  0  0  0
    0.0000    0.0000    0.0000 H   0  0  0  0  0  0  0  0  0  0  0  0
    0.0000    0.0000    0.0000 H   0  0  0  0  0  0  0  0  0  0  0  0
    0.0000    0.0000    0.0000 H   0  0  0  0  0  0  0  0  0  0  0  0
    0.0000    0.0000    0.0000 H   0  0  0  0  0  0  0  0  0  0  0  0
    0.0000    0.0000    0.0000 H   0  0  0  0  0  0  0  0  0  0  0  0
    0.0000    0.0000    0.0000 H   0  0  0  0  0  0  0  0  0  0  0  0
    0.0000    0.0000    0.0000 H   0  0  0  0  0  0  0  0  0  0  0  0
    0.0000    0.0000    0.0000 H   0  0  0  0  0  0  0  0  0  0  0  0
    0.0000    0.0000    0.0000 H   0  0  0  0  0  0  0  0  0  0  0  0
    0.0000    0.0000    0.0000 H   0  0  0  0  0  0  0  0  0  0  0  0
    0.0000    0.0000    0.0000 H   0  0  0  0  0  0  0  0  0  0  0  0
    0.0000    0.0000    0.0000 H   0  0  0  0  0  0  0  0  0  0  0  0
    0.0000    0.0000    0.0000 H   0  0  0  0  0  0  0  0  0  0  0  0
    0.0000    0.0000    0.0000 H   0  0  0  0  0  0  0  0  0  0  0  0
    0.0000    0.0000    0.0000 H   0  0  0  0  0  0  0  0  0  0  0  0
  1  3  1  0
  2 13  2  0
  3 10  1  0
  3 13  1  0
  4  5  1  0
  4  6  1  0
  4 10  1  0
  5  7  1  0
  6  8  1  0
  7  9  1  0
  8  9  1  0
 10 11  2  0
 11 12  1  0
 12 14  2  0
 12 15  1  0
 13 14  1  0
  1 16  1  0
  4 17  1  0
  5 18  1  0
  5 19  1  0
  6 20  1  0
  6 21  1  0
  7 22  1  0
  7 23  1  0
  8 24  1  0
  8 25  1  0
  9 26  1  0
  9 27  1  0
 11 28  1  0
 14 29  1  0
 15 30  1  0
 15 31  1  0
 15 32  1  0
M  END
>  <ALOGPS_LOGP>  (1) 
2.15

>  <ALOGPS_LOGS>  (1) 
-2.17

>  <ALOGPS_SOLUBILITY>  (1) 
1.41e+00 g/l

>  <DATABASE_ID>  (1) 
DB01188

>  <DATABASE_NAME>  (1) 
drugbank

>  <DRUGBANK_ID>  (1) 
DB01188

>  <DRUG_GROUPS>  (1) 
approved; investigational

>  <EXACT_MASS>  (1) 
207.125928793

>  <FORMULA>  (1) 
C12H17NO2

>  <GENERIC_NAME>  (1) 
Ciclopirox

>  <INCHI_IDENTIFIER>  (1) 
InChI=1S/C12H17NO2/c1-9-7-11(13(15)12(14)8-9)10-5-3-2-4-6-10/h7-8,10,15H,2-6H2,1H3

>  <INCHI_KEY>  (1) 
SCKYRAXSEDYPSA-UHFFFAOYSA-N

>  <INTERNATIONAL_BRANDS>  (1) 
Batrafen; Mycoster; Stieprox

>  <JCHEM_ACCEPTOR_COUNT>  (1) 
2

>  <JCHEM_AVERAGE_POLARIZABILITY>  (1) 
23.117942047063018

>  <JCHEM_BIOAVAILABILITY>  (1) 
1

>  <JCHEM_DONOR_COUNT>  (1) 
1

>  <JCHEM_FORMAL_CHARGE>  (1) 
0

>  <JCHEM_GHOSE_FILTER>  (1) 
1

>  <JCHEM_IUPAC>  (1) 
6-cyclohexyl-1-hydroxy-4-methyl-1,2-dihydropyridin-2-one

>  <JCHEM_LOGP>  (1) 
2.216589469333334

>  <JCHEM_MDDR_LIKE_RULE>  (1) 
0

>  <JCHEM_NUMBER_OF_RINGS>  (1) 
2

>  <JCHEM_PHYSIOLOGICAL_CHARGE>  (1) 
-1

>  <JCHEM_PKA_STRONGEST_ACIDIC>  (1) 
6.842140564132407

>  <JCHEM_PKA_STRONGEST_BASIC>  (1) 
-6.194129902384247

>  <JCHEM_POLAR_SURFACE_AREA>  (1) 
40.54

>  <JCHEM_REFRACTIVITY>  (1) 
60.907399999999996

>  <JCHEM_ROTATABLE_BOND_COUNT>  (1) 
1

>  <JCHEM_RULE_OF_FIVE>  (1) 
1

>  <JCHEM_TRADITIONAL_IUPAC>  (1) 
penlac

>  <JCHEM_VEBER_RULE>  (1) 
0

>  <MOLECULAR_WEIGHT>  (1) 
207.2689

>  <PRODUCTS>  (1) 
Apo-ciclopirox; Ciclodan; Ciclopirox; Ciclopirox Olamine; Ciclopirox Topical Solution; Cnl8; Loprox; Loprox Cream; Loprox Cream 1%; Loprox Crm 1%; Loprox Lotion; Loprox Lotion 1%; Loprox Lotion 1.0%; PMS-ciclopirox; Pedipak; Penlac; Stieprox Shampoo; Taro-ciclopirox

>  <SALTS>  (1) 
Ciclopirox olamine

>  <SECONDARY_ACCESSION_NUMBERS>  (1) 
APRD00871

>  <SMILES>  (1) 
CC1=CC(=O)N(O)C(=C1)C1CCCCC1

>  <SYNONYMS>  (1) 
Ciclopiroxum

$$$$
