
     RDKit          2D

 32 34  0  0  0  0  0  0  0  0999 V2000
    0.6203   -1.4601    0.0000 C   0  0  0  0  0  0  0  0  0  0  0  0
    1.4399   -1.3756    0.0000 N   0  0  0  0  0  0  0  0  0  0  0  0
    1.6117   -0.5680    0.0000 C   0  0  0  0  0  0  0  0  0  0  0  0
    0.8982   -0.1568    0.0000 C   0  0  0  0  0  0  0  0  0  0  0  0
    0.2838   -0.7082    0.0000 N   0  0  0  0  0  0  0  0  0  0  0  0
   -0.5238   -0.5363    0.0000 C   0  0  0  0  0  0  0  0  0  0  0  0
   -1.1382   -1.0876    0.0000 C   0  0  0  0  0  0  0  0  0  0  0  0
   -1.8517   -0.6765    0.0000 C   0  0  0  0  0  0  0  0  0  0  0  0
   -1.6799    0.1310    0.0000 C   0  0  0  0  0  0  0  0  0  0  0  0
   -0.8602    0.2198    0.0000 O   0  0  0  0  0  0  0  0  0  0  0  0
   -2.2311    0.7455    0.0000 C   0  0  0  0  0  0  0  0  0  0  0  0
   -3.0388    0.5736    0.0000 O   0  0  0  0  0  0  0  0  0  0  0  0
   -2.6037   -1.0130    0.0000 O   0  0  0  0  0  0  0  0  0  0  0  0
   -1.0495   -1.9072    0.0000 O   0  0  0  0  0  0  0  0  0  0  0  0
    0.8982    0.6695    0.0000 N   0  0  0  0  0  0  0  0  0  0  0  0
    1.6117    1.0806    0.0000 C   0  0  0  0  0  0  0  0  0  0  0  0
    2.3252    0.6695    0.0000 N   0  0  0  0  0  0  0  0  0  0  0  0
    2.3252   -0.1568    0.0000 C   0  0  0  0  0  0  0  0  0  0  0  0
    3.0388   -0.5680    0.0000 N   0  0  0  0  0  0  0  0  0  0  0  0
    1.6117    1.9072    0.0000 F   0  0  0  0  0  0  0  0  0  0  0  0
    0.0000    0.0000    0.0000 H   0  0  0  0  0  0  0  0  0  0  0  0
    0.0000    0.0000    0.0000 H   0  0  0  0  0  0  0  0  0  0  0  0
    0.0000    0.0000    0.0000 H   0  0  0  0  0  0  0  0  0  0  0  0
    0.0000    0.0000    0.0000 H   0  0  0  0  0  0  0  0  0  0  0  0
    0.0000    0.0000    0.0000 H   0  0  0  0  0  0  0  0  0  0  0  0
    0.0000    0.0000    0.0000 H   0  0  0  0  0  0  0  0  0  0  0  0
    0.0000    0.0000    0.0000 H   0  0  0  0  0  0  0  0  0  0  0  0
    0.0000    0.0000    0.0000 H   0  0  0  0  0  0  0  0  0  0  0  0
    0.0000    0.0000    0.0000 H   0  0  0  0  0  0  0  0  0  0  0  0
    0.0000    0.0000    0.0000 H   0  0  0  0  0  0  0  0  0  0  0  0
    0.0000    0.0000    0.0000 H   0  0  0  0  0  0  0  0  0  0  0  0
    0.0000    0.0000    0.0000 H   0  0  0  0  0  0  0  0  0  0  0  0
  1  2  2  0
  2  3  1  0
  3  4  2  0
  4  5  1  0
  1  5  1  0
  6  5  1  1
  6  7  1  0
  7  8  1  0
  8  9  1  0
  9 10  1  0
  6 10  1  0
  9 11  1  6
 11 12  1  0
  8 13  1  1
  7 14  1  6
  4 15  1  0
 15 16  2  0
 16 17  1  0
 17 18  2  0
  3 18  1  0
 18 19  1  0
 16 20  1  0
  1 21  1  0
  6 22  1  0
  7 23  1  0
  8 24  1  0
  9 25  1  0
 11 26  1  0
 11 27  1  0
 12 28  1  0
 13 29  1  0
 14 30  1  0
 19 31  1  0
 19 32  1  0
M  END
>  <ALOGPS_LOGP>  (1) 
-0.62

>  <ALOGPS_LOGS>  (1) 
-1.37

>  <ALOGPS_SOLUBILITY>  (1) 
1.21e+01 g/l

>  <DATABASE_ID>  (1) 
DB01073

>  <DATABASE_NAME>  (1) 
drugbank

>  <DRUGBANK_ID>  (1) 
DB01073

>  <DRUG_GROUPS>  (1) 
approved

>  <EXACT_MASS>  (1) 
285.087332049

>  <FORMULA>  (1) 
C10H12FN5O4

>  <GENERIC_NAME>  (1) 
Fludarabine

>  <INCHI_IDENTIFIER>  (1) 
InChI=1S/C10H12FN5O4/c11-10-14-7(12)4-8(15-10)16(2-13-4)9-6(19)5(18)3(1-17)20-9/h2-3,5-6,9,17-19H,1H2,(H2,12,14,15)/t3-,5-,6+,9-/m1/s1

>  <INCHI_KEY>  (1) 
HBUBKKRHXORPQB-FJFJXFQQSA-N

>  <JCHEM_ACCEPTOR_COUNT>  (1) 
8

>  <JCHEM_ATOM_COUNT>  (1) 
32

>  <JCHEM_AVERAGE_POLARIZABILITY>  (1) 
25.159882892921946

>  <JCHEM_BIOAVAILABILITY>  (1) 
1

>  <JCHEM_DONOR_COUNT>  (1) 
4

>  <JCHEM_FORMAL_CHARGE>  (1) 
0

>  <JCHEM_GHOSE_FILTER>  (1) 
0

>  <JCHEM_IUPAC>  (1) 
(2R,3S,4S,5R)-2-(6-amino-2-fluoro-9H-purin-9-yl)-5-(hydroxymethyl)oxolane-3,4-diol

>  <JCHEM_LOGP>  (1) 
-1.4700027740000001

>  <JCHEM_MDDR_LIKE_RULE>  (1) 
0

>  <JCHEM_NUMBER_OF_RINGS>  (1) 
3

>  <JCHEM_PHYSIOLOGICAL_CHARGE>  (1) 
0

>  <JCHEM_PKA>  (1) 
13.891147806860374

>  <JCHEM_PKA_STRONGEST_ACIDIC>  (1) 
12.45399925280963

>  <JCHEM_PKA_STRONGEST_BASIC>  (1) 
0.7103276797951049

>  <JCHEM_POLAR_SURFACE_AREA>  (1) 
139.54000000000002

>  <JCHEM_REFRACTIVITY>  (1) 
64.05919999999999

>  <JCHEM_ROTATABLE_BOND_COUNT>  (1) 
2

>  <JCHEM_RULE_OF_FIVE>  (1) 
1

>  <JCHEM_TRADITIONAL_IUPAC>  (1) 
fludarabine

>  <JCHEM_VEBER_RULE>  (1) 
0

>  <MOLECULAR_WEIGHT>  (1) 
285.235

>  <PRODUCTS>  (1) 
Aj-fludarabine; Fludara; Fludarabine; Fludarabine Phosphate; Fludarabine Phosphate Injection; Fludarabine Phosphate Injection, USP; Fludarabine Phosphate for Injection; Fludarabine Phosphate for Injection USP; Fludarabine phosphate

>  <SALTS>  (1) 
Fludarabine phosphate

>  <SECONDARY_ACCESSION_NUMBERS>  (1) 
APRD00594

>  <SMILES>  (1) 
NC1=NC(F)=NC2=C1N=CN2[C@@H]1O[C@H](CO)[C@@H](O)[C@@H]1O

>  <SYNONYMS>  (1) 
2-F-ARAA; 2-fluoro ARA-A

$$$$
