 
     RDKit          2D

 41 43  0  0  1  0  0  0  0  0999 V2000
   23.9060  -11.7651    0.0000 C   0  0  0  0  0  0  0  0  0  0  0  0
   23.9060  -12.5899    0.0000 N   0  0  0  0  0  0  0  0  0  0  0  0
   24.6204  -13.0023    0.0000 C   0  0  0  0  0  0  0  0  0  0  0  0
   25.3347  -12.5899    0.0000 C   0  0  0  0  0  0  0  0  0  0  0  0
   25.3347  -11.7651    0.0000 C   0  0  0  0  0  0  0  0  0  0  0  0
   24.6204  -11.3526    0.0000 S   0  0  0  0  0  0  0  0  0  0  0  0
   23.0810  -11.7651    0.0000 C   0  0  0  0  0  0  0  0  0  0  0  0
   23.0810  -12.5899    0.0000 C   0  0  0  0  0  0  0  0  0  0  0  0
   22.3668  -11.3526    0.0000 N   0  0  0  0  0  0  0  0  0  0  0  0
   21.6524  -11.7651    0.0000 C   0  0  0  0  0  0  0  0  0  0  0  0
   21.6524  -12.5899    0.0000 O   0  0  0  0  0  0  0  0  0  0  0  0
   22.3668  -13.0023    0.0000 O   0  0  0  0  0  0  0  0  0  0  0  0
   20.9379  -11.3526    0.0000 C   0  0  0  0  0  0  0  0  0  0  0  0
   20.2122  -11.7719    0.0000 C   0  0  0  0  0  0  0  0  0  0  0  0
   19.5455  -11.2727    0.0000 C   0  0  0  0  0  0  0  0  0  0  0  0
   18.8623  -11.7523    0.0000 S   0  0  0  0  0  0  0  0  0  0  0  0
   19.1072  -12.5502    0.0000 C   0  0  0  0  0  0  0  0  0  0  0  0
   19.9417  -12.5224    0.0000 N   0  0  0  0  0  0  0  0  0  0  0  0
   20.9378  -10.5150    0.0000 C   0  0  0  0  0  0  0  0  0  0  0  0
   24.6204  -13.8406    0.0000 C   0  0  0  0  0  0  0  0  0  0  0  0
   23.9037  -14.2543    0.0000 O   0  0  0  0  0  0  0  0  0  0  0  0
   25.3445  -14.2587    0.0000 O   0  0  0  0  0  0  0  0  0  0  0  0
   18.5996  -13.2251    0.0000 N   0  0  0  0  0  0  0  0  0  0  0  0
   21.6355  -10.1122    0.0000 C   0  0  0  0  0  0  0  0  0  0  0  0
   21.6356   -9.2850    0.0000 C   0  0  0  0  0  0  0  0  0  0  0  0
   22.3442   -8.8758    0.0000 O   0  0  0  0  0  0  0  0  0  0  0  0
   20.9084   -8.8651    0.0000 O   0  0  0  0  0  0  0  0  0  0  0  0
    0.0000    0.0000    0.0000 H   0  0  0  0  0  0  0  0  0  0  0  0
    0.0000    0.0000    0.0000 H   0  0  0  0  0  0  0  0  0  0  0  0
    0.0000    0.0000    0.0000 H   0  0  0  0  0  0  0  0  0  0  0  0
    0.0000    0.0000    0.0000 H   0  0  0  0  0  0  0  0  0  0  0  0
    0.0000    0.0000    0.0000 H   0  0  0  0  0  0  0  0  0  0  0  0
    0.0000    0.0000    0.0000 H   0  0  0  0  0  0  0  0  0  0  0  0
    0.0000    0.0000    0.0000 H   0  0  0  0  0  0  0  0  0  0  0  0
    0.0000    0.0000    0.0000 H   0  0  0  0  0  0  0  0  0  0  0  0
    0.0000    0.0000    0.0000 H   0  0  0  0  0  0  0  0  0  0  0  0
    0.0000    0.0000    0.0000 H   0  0  0  0  0  0  0  0  0  0  0  0
    0.0000    0.0000    0.0000 H   0  0  0  0  0  0  0  0  0  0  0  0
    0.0000    0.0000    0.0000 H   0  0  0  0  0  0  0  0  0  0  0  0
    0.0000    0.0000    0.0000 H   0  0  0  0  0  0  0  0  0  0  0  0
    0.0000    0.0000    0.0000 H   0  0  0  0  0  0  0  0  0  0  0  0
  1  2  1  0
  2  3  1  0
  3  4  2  0
  4  5  1  0
  5  6  1  0
  1  6  1  0
  1  7  1  0
  7  8  1  0
  2  8  1  0
  7  9  1  1
  9 10  1  0
 10 11  2  0
  8 12  2  0
 10 13  1  0
 13 14  1  0
 14 15  2  0
 15 16  1  0
 16 17  1  0
 17 18  2  0
 14 18  1  0
 13 19  2  0
  3 20  1  0
 20 21  2  0
 20 22  1  0
 17 23  1  0
 19 24  1  0
 24 25  1  0
 25 26  2  0
 25 27  1  0
  1 28  1  6
  4 29  1  0
  5 30  1  0
  5 31  1  0
  7 32  1  0
  9 33  1  0
 15 34  1  0
 19 35  1  0
 22 36  1  0
 23 37  1  0
 23 38  1  0
 24 39  1  0
 24 40  1  0
 27 41  1  0
M  END
>  <ALOGPS_LOGP>  (1) 
0.31

>  <ALOGPS_LOGS>  (1) 
-3.77

>  <ALOGPS_SOLUBILITY>  (1) 
7.05e-02 g/l

>  <DATABASE_ID>  (1) 
DB01415

>  <DATABASE_NAME>  (1) 
drugbank

>  <DRUGBANK_ID>  (1) 
DB01415

>  <DRUG_GROUPS>  (1) 
approved

>  <EXACT_MASS>  (1) 
410.03547558

>  <FORMULA>  (1) 
C15H14N4O6S2

>  <GENERIC_NAME>  (1) 
Ceftibuten

>  <INCHI_IDENTIFIER>  (1) 
InChI=1S/C15H14N4O6S2/c16-15-17-7(5-27-15)6(1-2-9(20)21)11(22)18-10-12(23)19-8(14(24)25)3-4-26-13(10)19/h1,3,5,10,13H,2,4H2,(H2,16,17)(H,18,22)(H,20,21)(H,24,25)/b6-1-/t10-,13-/m1/s1

>  <INCHI_KEY>  (1) 
UNJFKXSSGBWRBZ-BJCIPQKHSA-N

>  <JCHEM_ACCEPTOR_COUNT>  (1) 
8

>  <JCHEM_AVERAGE_POLARIZABILITY>  (1) 
38.4976253702732

>  <JCHEM_BIOAVAILABILITY>  (1) 
1

>  <JCHEM_DONOR_COUNT>  (1) 
4

>  <JCHEM_FORMAL_CHARGE>  (1) 
0

>  <JCHEM_GHOSE_FILTER>  (1) 
0

>  <JCHEM_IUPAC>  (1) 
(6R,7R)-7-[(2Z)-2-(2-amino-1,3-thiazol-4-yl)-4-carboxybut-2-enamido]-8-oxo-5-thia-1-azabicyclo[4.2.0]oct-2-ene-2-carboxylic acid

>  <JCHEM_LOGP>  (1) 
-1.4103965935757559

>  <JCHEM_MDDR_LIKE_RULE>  (1) 
1

>  <JCHEM_NUMBER_OF_RINGS>  (1) 
3

>  <JCHEM_PHYSIOLOGICAL_CHARGE>  (1) 
-2

>  <JCHEM_PKA>  (1) 
3.6806930376855

>  <JCHEM_PKA_STRONGEST_ACIDIC>  (1) 
2.98685022221115

>  <JCHEM_PKA_STRONGEST_BASIC>  (1) 
4.686058579408637

>  <JCHEM_POLAR_SURFACE_AREA>  (1) 
162.92

>  <JCHEM_REFRACTIVITY>  (1) 
97.02379999999998

>  <JCHEM_ROTATABLE_BOND_COUNT>  (1) 
6

>  <JCHEM_RULE_OF_FIVE>  (1) 
1

>  <JCHEM_TRADITIONAL_IUPAC>  (1) 
ceftibuten

>  <JCHEM_VEBER_RULE>  (1) 
0

>  <MOLECULAR_WEIGHT>  (1) 
410.425

>  <PRODUCTS>  (1) 
Cedax; Ceftibuten

>  <SALTS>  (1) 
Ceftibuten dihydrate

>  <SMILES>  (1) 
[H][C@]12SCC=C(N1C(=O)[C@H]2NC(=O)C(=C/CC(O)=O)\C1=CSC(N)=N1)C(O)=O

$$$$
