1265
     RDKit          2D

 31 32  0  0  1  0  0  0  0  0999 V2000
    3.7462   -1.0025    0.0000 O   0  0  0  0  0  0  0  0  0  0  0  0
    2.1814   -2.4546    0.0000 O   0  0  0  0  0  0  0  0  0  0  0  0
    4.7966   -2.3683    0.0000 O   0  0  0  0  0  0  0  0  0  0  0  0
    1.6499    0.3073    0.0000 O   0  0  0  0  0  0  0  0  0  0  0  0
    3.0789    2.7822    0.0000 O   0  0  0  0  0  0  0  0  0  0  0  0
    3.0789    0.3073    0.0000 N   0  0  0  0  0  0  0  0  0  0  0  0
    2.3643    1.5447    0.0000 N   0  0  0  0  0  0  0  0  0  0  0  0
    2.6663   -1.7872    0.0000 C   0  0  0  0  0  0  0  0  0  0  0  0
    3.0789   -0.5177    0.0000 C   0  0  0  0  0  0  0  0  0  0  0  0
    2.4113   -1.0025    0.0000 C   0  0  0  0  0  0  0  0  0  0  0  0
    3.4913   -1.7872    0.0000 C   0  0  0  0  0  0  0  0  0  0  0  0
    3.9761   -2.4546    0.0000 C   0  0  0  0  0  0  0  0  0  0  0  0
    3.7932    0.7197    0.0000 C   0  0  0  0  0  0  0  0  0  0  0  0
    2.3643    0.7197    0.0000 C   0  0  0  0  0  0  0  0  0  0  0  0
    3.7932    1.5447    0.0000 C   0  0  0  0  0  0  0  0  0  0  0  0
    3.0789    1.9573    0.0000 C   0  0  0  0  0  0  0  0  0  0  0  0
    4.5077    1.9573    0.0000 C   0  0  0  0  0  0  0  0  0  0  0  0
    0.0000    0.0000    0.0000 H   0  0  0  0  0  0  0  0  0  0  0  0
    0.0000    0.0000    0.0000 H   0  0  0  0  0  0  0  0  0  0  0  0
    0.0000    0.0000    0.0000 H   0  0  0  0  0  0  0  0  0  0  0  0
    0.0000    0.0000    0.0000 H   0  0  0  0  0  0  0  0  0  0  0  0
    0.0000    0.0000    0.0000 H   0  0  0  0  0  0  0  0  0  0  0  0
    0.0000    0.0000    0.0000 H   0  0  0  0  0  0  0  0  0  0  0  0
    0.0000    0.0000    0.0000 H   0  0  0  0  0  0  0  0  0  0  0  0
    0.0000    0.0000    0.0000 H   0  0  0  0  0  0  0  0  0  0  0  0
    0.0000    0.0000    0.0000 H   0  0  0  0  0  0  0  0  0  0  0  0
    0.0000    0.0000    0.0000 H   0  0  0  0  0  0  0  0  0  0  0  0
    0.0000    0.0000    0.0000 H   0  0  0  0  0  0  0  0  0  0  0  0
    0.0000    0.0000    0.0000 H   0  0  0  0  0  0  0  0  0  0  0  0
    0.0000    0.0000    0.0000 H   0  0  0  0  0  0  0  0  0  0  0  0
    0.0000    0.0000    0.0000 H   0  0  0  0  0  0  0  0  0  0  0  0
  1  9  1  0
  1 11  1  0
  8  2  1  6
  3 12  1  0
  4 14  2  0
  5 16  2  0
  9  6  1  1
  6 13  1  0
  6 14  1  0
  7 14  1  0
  7 16  1  0
  8 10  1  0
  8 11  1  0
  9 10  1  0
 11 12  1  6
 13 15  2  0
 15 16  1  0
 15 17  1  0
  2 18  1  0
  3 19  1  0
  7 20  1  0
  8 21  1  0
  9 22  1  0
 10 23  1  0
 10 24  1  0
 11 25  1  0
 12 26  1  0
 12 27  1  0
 13 28  1  0
 17 29  1  0
 17 30  1  0
 17 31  1  0
M  END
>  <ALOGPS_LOGP>  (1) 
-1.32

>  <ALOGPS_LOGS>  (1) 
-0.56

>  <ALOGPS_SOLUBILITY>  (1) 
6.68e+01 g/l

>  <DATABASE_ID>  (1) 
DB01265

>  <DATABASE_NAME>  (1) 
drugbank

>  <DRUGBANK_ID>  (1) 
DB01265

>  <DRUG_GROUPS>  (1) 
approved; investigational

>  <EXACT_MASS>  (1) 
242.090271568

>  <FORMULA>  (1) 
C10H14N2O5

>  <GENERIC_NAME>  (1) 
Telbivudine

>  <INCHI_IDENTIFIER>  (1) 
InChI=1S/C10H14N2O5/c1-5-3-12(10(16)11-9(5)15)8-2-6(14)7(4-13)17-8/h3,6-8,13-14H,2,4H2,1H3,(H,11,15,16)/t6-,7+,8+/m1/s1

>  <INCHI_KEY>  (1) 
IQFYYKKMVGJFEH-CSMHCCOUSA-N

>  <JCHEM_ACCEPTOR_COUNT>  (1) 
5

>  <JCHEM_AVERAGE_POLARIZABILITY>  (1) 
23.25380466939506

>  <JCHEM_BIOAVAILABILITY>  (1) 
1

>  <JCHEM_DONOR_COUNT>  (1) 
3

>  <JCHEM_FORMAL_CHARGE>  (1) 
0

>  <JCHEM_GHOSE_FILTER>  (1) 
0

>  <JCHEM_IUPAC>  (1) 
1-[(2S,4R,5S)-4-hydroxy-5-(hydroxymethyl)oxolan-2-yl]-5-methyl-1,2,3,4-tetrahydropyrimidine-2,4-dione

>  <JCHEM_LOGP>  (1) 
-1.1190535893333329

>  <JCHEM_MDDR_LIKE_RULE>  (1) 
0

>  <JCHEM_NUMBER_OF_RINGS>  (1) 
2

>  <JCHEM_PHYSIOLOGICAL_CHARGE>  (1) 
0

>  <JCHEM_PKA>  (1) 
13.907922676786033

>  <JCHEM_PKA_STRONGEST_ACIDIC>  (1) 
9.960276156373078

>  <JCHEM_PKA_STRONGEST_BASIC>  (1) 
-2.9780835894464888

>  <JCHEM_POLAR_SURFACE_AREA>  (1) 
99.09999999999998

>  <JCHEM_REFRACTIVITY>  (1) 
55.412000000000006

>  <JCHEM_ROTATABLE_BOND_COUNT>  (1) 
2

>  <JCHEM_RULE_OF_FIVE>  (1) 
1

>  <JCHEM_TRADITIONAL_IUPAC>  (1) 
telbivudine

>  <JCHEM_VEBER_RULE>  (1) 
0

>  <MOLECULAR_WEIGHT>  (1) 
242.2286

>  <PRODUCTS>  (1) 
Sebivo; Tyzeka

>  <SMILES>  (1) 
CC1=CN([C@@H]2C[C@@H](O)[C@H](CO)O2)C(=O)NC1=O

$$$$
