1608
     RDKit          2D

 49 52  0  0  0  0  0  0  0  0999 V2000
    5.2216   -2.9223    0.0000 S   0  0  0  0  0  0  0  0  0  0  0  0
    1.6498    2.4395    0.0000 O   0  0  0  0  0  0  0  0  0  0  0  0
    3.7929    1.2021    0.0000 N   0  0  0  0  0  0  0  0  0  0  0  0
    5.2216   -1.2725    0.0000 N   0  0  0  0  0  0  0  0  0  0  0  0
    8.8463   -0.8374    0.0000 N   0  0  0  0  0  0  0  0  0  0  0  0
    3.0786    0.7897    0.0000 C   0  0  0  0  0  0  0  0  0  0  0  0
    3.7929    2.0270    0.0000 C   0  0  0  0  0  0  0  0  0  0  0  0
    2.3641    2.0270    0.0000 C   0  0  0  0  0  0  0  0  0  0  0  0
    2.3641    1.2021    0.0000 C   0  0  0  0  0  0  0  0  0  0  0  0
    3.0786    2.4395    0.0000 C   0  0  0  0  0  0  0  0  0  0  0  0
    4.5073    0.7897    0.0000 C   0  0  0  0  0  0  0  0  0  0  0  0
    4.5073   -0.0352    0.0000 C   0  0  0  0  0  0  0  0  0  0  0  0
    5.2216   -0.4476    0.0000 C   0  0  0  0  0  0  0  0  0  0  0  0
    5.9361   -1.6850    0.0000 C   0  0  0  0  0  0  0  0  0  0  0  0
    4.5073   -1.6850    0.0000 C   0  0  0  0  0  0  0  0  0  0  0  0
    5.9361   -2.5099    0.0000 C   0  0  0  0  0  0  0  0  0  0  0  0
    4.5073   -2.5099    0.0000 C   0  0  0  0  0  0  0  0  0  0  0  0
    6.6734   -1.2439    0.0000 C   0  0  0  0  0  0  0  0  0  0  0  0
    3.7699   -1.2439    0.0000 C   0  0  0  0  0  0  0  0  0  0  0  0
    6.6734   -2.9509    0.0000 C   0  0  0  0  0  0  0  0  0  0  0  0
    3.7699   -2.9509    0.0000 C   0  0  0  0  0  0  0  0  0  0  0  0
    7.4209   -1.6679    0.0000 C   0  0  0  0  0  0  0  0  0  0  0  0
    3.0225   -1.6679    0.0000 C   0  0  0  0  0  0  0  0  0  0  0  0
    7.4209   -2.5271    0.0000 C   0  0  0  0  0  0  0  0  0  0  0  0
    3.0225   -2.5271    0.0000 C   0  0  0  0  0  0  0  0  0  0  0  0
    8.1336   -1.2526    0.0000 C   0  0  0  0  0  0  0  0  0  0  0  0
    0.0000    0.0000    0.0000 H   0  0  0  0  0  0  0  0  0  0  0  0
    0.0000    0.0000    0.0000 H   0  0  0  0  0  0  0  0  0  0  0  0
    0.0000    0.0000    0.0000 H   0  0  0  0  0  0  0  0  0  0  0  0
    0.0000    0.0000    0.0000 H   0  0  0  0  0  0  0  0  0  0  0  0
    0.0000    0.0000    0.0000 H   0  0  0  0  0  0  0  0  0  0  0  0
    0.0000    0.0000    0.0000 H   0  0  0  0  0  0  0  0  0  0  0  0
    0.0000    0.0000    0.0000 H   0  0  0  0  0  0  0  0  0  0  0  0
    0.0000    0.0000    0.0000 H   0  0  0  0  0  0  0  0  0  0  0  0
    0.0000    0.0000    0.0000 H   0  0  0  0  0  0  0  0  0  0  0  0
    0.0000    0.0000    0.0000 H   0  0  0  0  0  0  0  0  0  0  0  0
    0.0000    0.0000    0.0000 H   0  0  0  0  0  0  0  0  0  0  0  0
    0.0000    0.0000    0.0000 H   0  0  0  0  0  0  0  0  0  0  0  0
    0.0000    0.0000    0.0000 H   0  0  0  0  0  0  0  0  0  0  0  0
    0.0000    0.0000    0.0000 H   0  0  0  0  0  0  0  0  0  0  0  0
    0.0000    0.0000    0.0000 H   0  0  0  0  0  0  0  0  0  0  0  0
    0.0000    0.0000    0.0000 H   0  0  0  0  0  0  0  0  0  0  0  0
    0.0000    0.0000    0.0000 H   0  0  0  0  0  0  0  0  0  0  0  0
    0.0000    0.0000    0.0000 H   0  0  0  0  0  0  0  0  0  0  0  0
    0.0000    0.0000    0.0000 H   0  0  0  0  0  0  0  0  0  0  0  0
    0.0000    0.0000    0.0000 H   0  0  0  0  0  0  0  0  0  0  0  0
    0.0000    0.0000    0.0000 H   0  0  0  0  0  0  0  0  0  0  0  0
    0.0000    0.0000    0.0000 H   0  0  0  0  0  0  0  0  0  0  0  0
    0.0000    0.0000    0.0000 H   0  0  0  0  0  0  0  0  0  0  0  0
  1 16  1  0
  1 17  1  0
  2  8  1  0
  3  6  1  0
  3  7  1  0
  3 11  1  0
  4 13  1  0
  4 14  1  0
  4 15  1  0
  5 26  3  0
  6  9  1  0
  7 10  1  0
  8  9  1  0
  8 10  1  0
 11 12  1  0
 12 13  1  0
 14 16  2  0
 14 18  1  0
 15 17  2  0
 15 19  1  0
 16 20  1  0
 17 21  1  0
 18 22  2  0
 19 23  2  0
 20 24  2  0
 21 25  2  0
 22 24  1  0
 22 26  1  0
 23 25  1  0
  2 27  1  0
  6 28  1  0
  6 29  1  0
  7 30  1  0
  7 31  1  0
  8 32  1  0
  9 33  1  0
  9 34  1  0
 10 35  1  0
 10 36  1  0
 11 37  1  0
 11 38  1  0
 12 39  1  0
 12 40  1  0
 13 41  1  0
 13 42  1  0
 18 43  1  0
 19 44  1  0
 20 45  1  0
 21 46  1  0
 23 47  1  0
 24 48  1  0
 25 49  1  0
M  END
>  <ALOGPS_LOGP>  (1) 
3.78

>  <ALOGPS_LOGS>  (1) 
-3.79

>  <ALOGPS_SOLUBILITY>  (1) 
5.90e-02 g/l

>  <DATABASE_ID>  (1) 
DB01608

>  <DATABASE_NAME>  (1) 
drugbank

>  <DRUGBANK_ID>  (1) 
DB01608

>  <DRUG_GROUPS>  (1) 
approved

>  <EXACT_MASS>  (1) 
365.156183063

>  <FORMULA>  (1) 
C21H23N3OS

>  <GENERIC_NAME>  (1) 
Propericiazine

>  <INCHI_IDENTIFIER>  (1) 
InChI=1S/C21H23N3OS/c22-15-16-6-7-21-19(14-16)24(18-4-1-2-5-20(18)26-21)11-3-10-23-12-8-17(25)9-13-23/h1-2,4-7,14,17,25H,3,8-13H2

>  <INCHI_KEY>  (1) 
LUALIOATIOESLM-UHFFFAOYSA-N

>  <JCHEM_ACCEPTOR_COUNT>  (1) 
4

>  <JCHEM_AVERAGE_POLARIZABILITY>  (1) 
40.87292028052372

>  <JCHEM_BIOAVAILABILITY>  (1) 
1

>  <JCHEM_DONOR_COUNT>  (1) 
1

>  <JCHEM_FORMAL_CHARGE>  (1) 
0

>  <JCHEM_GHOSE_FILTER>  (1) 
1

>  <JCHEM_IUPAC>  (1) 
10-[3-(4-hydroxypiperidin-1-yl)propyl]-10H-phenothiazine-2-carbonitrile

>  <JCHEM_LOGP>  (1) 
3.1051113470000002

>  <JCHEM_MDDR_LIKE_RULE>  (1) 
0

>  <JCHEM_NUMBER_OF_RINGS>  (1) 
4

>  <JCHEM_PHYSIOLOGICAL_CHARGE>  (1) 
1

>  <JCHEM_PKA_STRONGEST_ACIDIC>  (1) 
15.179288989266738

>  <JCHEM_PKA_STRONGEST_BASIC>  (1) 
8.37418913324778

>  <JCHEM_POLAR_SURFACE_AREA>  (1) 
50.5

>  <JCHEM_REFRACTIVITY>  (1) 
108.39740000000003

>  <JCHEM_ROTATABLE_BOND_COUNT>  (1) 
4

>  <JCHEM_RULE_OF_FIVE>  (1) 
1

>  <JCHEM_TRADITIONAL_IUPAC>  (1) 
propericiazine

>  <JCHEM_VEBER_RULE>  (1) 
0

>  <MOLECULAR_WEIGHT>  (1) 
365.492

>  <PRODUCTS>  (1) 
Neuleptil 10mg Capsules; Neuleptil 20mg Capsules; Neuleptil 5mg Capsules; Neuleptil Gouttes 10mg/ml

>  <SMILES>  (1) 
OC1CCN(CCCN2C3=CC=CC=C3SC3=C2C=C(C=C3)C#N)CC1

>  <SYNONYMS>  (1) 
Periciazine; Piperocyanomazine

$$$$
