 
     RDKit          2D

 45 48  0  0  1  0  0  0  0  0999 V2000
   17.5799   -9.8519    0.0000 C   0  0  0  0  0  0  0  0  0  0  0  0
   18.2899  -10.2670    0.0000 C   0  0  0  0  0  0  0  0  0  0  0  0
   16.8630  -10.2635    0.0000 C   0  0  0  0  0  0  0  0  0  0  0  0
   17.5832   -9.0253    0.0000 C   0  0  0  0  0  0  0  0  0  0  0  0
   18.2899  -11.0936    0.0000 C   0  0  0  0  0  0  0  0  0  0  0  0
   19.0068   -9.8519    0.0000 C   0  0  0  0  0  0  0  0  0  0  0  0
   16.1495   -9.8451    0.0000 C   0  0  0  0  0  0  0  0  0  0  0  0
   16.8595  -11.0867    0.0000 O   0  0  0  0  0  0  0  0  0  0  0  0
   16.8699   -8.6136    0.0000 C   0  0  0  0  0  0  0  0  0  0  0  0
   18.2968   -8.6171    0.0000 O   0  0  0  0  0  0  0  0  0  0  0  0
   19.0068  -11.5018    0.0000 C   0  0  0  0  0  0  0  0  0  0  0  0
   19.7169  -10.2670    0.0000 C   0  0  0  0  0  0  0  0  0  0  0  0
   16.1530   -9.0184    0.0000 C   0  0  0  0  0  0  0  0  0  0  0  0
   15.4429  -10.2601    0.0000 C   0  0  0  0  0  0  0  0  0  0  0  0
   16.8732   -7.7871    0.0000 O   0  0  0  0  0  0  0  0  0  0  0  0
   19.7169  -11.0936    0.0000 C   0  0  0  0  0  0  0  0  0  0  0  0
   15.4429   -8.6102    0.0000 C   0  0  0  0  0  0  0  0  0  0  0  0
   14.7260   -9.8451    0.0000 C   0  0  0  0  0  0  0  0  0  0  0  0
   20.4338  -11.5018    0.0000 C   0  0  0  0  0  0  0  0  0  0  0  0
   14.7260   -9.0184    0.0000 C   0  0  0  0  0  0  0  0  0  0  0  0
   20.4338  -12.3285    0.0000 C   0  0  0  0  0  0  0  0  0  0  0  0
   21.1506  -11.0936    0.0000 C   0  0  0  0  0  0  0  0  0  0  0  0
   21.1506  -12.7435    0.0000 C   0  0  0  0  0  0  0  0  0  0  0  0
   21.8606  -11.5018    0.0000 C   0  0  0  0  0  0  0  0  0  0  0  0
   21.8606  -12.3285    0.0000 C   0  0  0  0  0  0  0  0  0  0  0  0
   22.5774  -12.7401    0.0000 Cl  0  0  0  0  0  0  0  0  0  0  0  0
    0.0000    0.0000    0.0000 H   0  0  0  0  0  0  0  0  0  0  0  0
    0.0000    0.0000    0.0000 H   0  0  0  0  0  0  0  0  0  0  0  0
    0.0000    0.0000    0.0000 H   0  0  0  0  0  0  0  0  0  0  0  0
    0.0000    0.0000    0.0000 H   0  0  0  0  0  0  0  0  0  0  0  0
    0.0000    0.0000    0.0000 H   0  0  0  0  0  0  0  0  0  0  0  0
    0.0000    0.0000    0.0000 H   0  0  0  0  0  0  0  0  0  0  0  0
    0.0000    0.0000    0.0000 H   0  0  0  0  0  0  0  0  0  0  0  0
    0.0000    0.0000    0.0000 H   0  0  0  0  0  0  0  0  0  0  0  0
    0.0000    0.0000    0.0000 H   0  0  0  0  0  0  0  0  0  0  0  0
    0.0000    0.0000    0.0000 H   0  0  0  0  0  0  0  0  0  0  0  0
    0.0000    0.0000    0.0000 H   0  0  0  0  0  0  0  0  0  0  0  0
    0.0000    0.0000    0.0000 H   0  0  0  0  0  0  0  0  0  0  0  0
    0.0000    0.0000    0.0000 H   0  0  0  0  0  0  0  0  0  0  0  0
    0.0000    0.0000    0.0000 H   0  0  0  0  0  0  0  0  0  0  0  0
    0.0000    0.0000    0.0000 H   0  0  0  0  0  0  0  0  0  0  0  0
    0.0000    0.0000    0.0000 H   0  0  0  0  0  0  0  0  0  0  0  0
    0.0000    0.0000    0.0000 H   0  0  0  0  0  0  0  0  0  0  0  0
    0.0000    0.0000    0.0000 H   0  0  0  0  0  0  0  0  0  0  0  0
    0.0000    0.0000    0.0000 H   0  0  0  0  0  0  0  0  0  0  0  0
  2  1  1  1
  1  3  1  0
  1  4  2  0
  2  5  1  0
  2  6  1  0
  3  7  1  0
  3  8  2  0
  4  9  1  0
  4 10  1  0
  5 11  1  0
  6 12  1  0
  7 13  2  0
  7 14  1  0
  9 15  2  0
 11 16  1  0
 13 17  1  0
 14 18  2  0
 16 19  1  1
 17 20  2  0
 19 21  2  0
 19 22  1  0
 21 23  1  0
 22 24  2  0
 23 25  2  0
 25 26  1  0
  9 13  1  0
 12 16  1  0
 18 20  1  0
 24 25  1  0
  2 27  1  0
  5 28  1  0
  5 29  1  0
  6 30  1  0
  6 31  1  0
 10 32  1  0
 11 33  1  0
 11 34  1  0
 12 35  1  0
 12 36  1  0
 14 37  1  0
 16 38  1  0
 17 39  1  0
 18 40  1  0
 20 41  1  0
 21 42  1  0
 22 43  1  0
 23 44  1  0
 24 45  1  0
M  END
>  <ALOGPS_LOGP>  (1) 
4.74

>  <ALOGPS_LOGS>  (1) 
-5.66

>  <ALOGPS_SOLUBILITY>  (1) 
7.96e-04 g/l

>  <DATABASE_ID>  (1) 
DB01117

>  <DATABASE_NAME>  (1) 
drugbank

>  <DRUGBANK_ID>  (1) 
DB01117

>  <DRUG_GROUPS>  (1) 
approved

>  <EXACT_MASS>  (1) 
366.102272181

>  <FORMULA>  (1) 
C22H19ClO3

>  <GENERIC_NAME>  (1) 
Atovaquone

>  <INCHI_IDENTIFIER>  (1) 
InChI=1S/C22H19ClO3/c23-16-11-9-14(10-12-16)13-5-7-15(8-6-13)19-20(24)17-3-1-2-4-18(17)21(25)22(19)26/h1-4,9-13,15,26H,5-8H2/t13-,15-

>  <INCHI_KEY>  (1) 
KUCQYCKVKVOKAY-CTYIDZIISA-N

>  <JCHEM_ACCEPTOR_COUNT>  (1) 
3

>  <JCHEM_AVERAGE_POLARIZABILITY>  (1) 
39.55113071275029

>  <JCHEM_BIOAVAILABILITY>  (1) 
1

>  <JCHEM_DONOR_COUNT>  (1) 
1

>  <JCHEM_FORMAL_CHARGE>  (1) 
0

>  <JCHEM_GHOSE_FILTER>  (1) 
1

>  <JCHEM_IUPAC>  (1) 
2-hydroxy-3-[(1r,4r)-4-(4-chlorophenyl)cyclohexyl]-1,4-dihydronaphthalene-1,4-dione

>  <JCHEM_LOGP>  (1) 
4.997646357666667

>  <JCHEM_MDDR_LIKE_RULE>  (1) 
0

>  <JCHEM_NUMBER_OF_RINGS>  (1) 
4

>  <JCHEM_PHYSIOLOGICAL_CHARGE>  (1) 
0

>  <JCHEM_PKA_STRONGEST_ACIDIC>  (1) 
8.23386811185948

>  <JCHEM_PKA_STRONGEST_BASIC>  (1) 
-4.126766087872874

>  <JCHEM_POLAR_SURFACE_AREA>  (1) 
54.37

>  <JCHEM_REFRACTIVITY>  (1) 
103.10650000000001

>  <JCHEM_ROTATABLE_BOND_COUNT>  (1) 
2

>  <JCHEM_RULE_OF_FIVE>  (1) 
1

>  <JCHEM_TRADITIONAL_IUPAC>  (1) 
atovaquone

>  <JCHEM_VEBER_RULE>  (1) 
0

>  <MOLECULAR_WEIGHT>  (1) 
366.837

>  <PRODUCTS>  (1) 
Atovaquone; Atovaquone Proguanil; Atovaquone and Proguanil HCl; Atovaquone and Proguanil Hydrochloride; Atovaquone and Proguanil Hydrochloride Pediatric; Atovaquone and Proguanil Hydrochloride Tablets; Malarone; Malarone Pediatric; Mepron; Mepron Tab 250mg; Mylan-atovaquone/proguanil; Teva-atovaquone Proguanil

>  <SECONDARY_ACCESSION_NUMBERS>  (1) 
APRD00805

>  <SMILES>  (1) 
OC1=C([C@H]2CC[C@@H](CC2)C2=CC=C(Cl)C=C2)C(=O)C2=CC=CC=C2C1=O

$$$$
