
     RDKit          2D

 48 51  0  0  0  0  0  0  0  0999 V2000
   13.4653   -4.3776    0.0000 C   0  0  0  0  0  0  0  0  0  0  0  0
   13.4653   -3.5495    0.0000 C   0  0  0  0  0  0  0  0  0  0  0  0
   14.8966   -3.5495    0.0000 C   0  0  0  0  0  0  0  0  0  0  0  0
   14.1767   -4.7895    0.0000 N   0  0  0  0  0  0  0  0  0  0  0  0
   12.7413   -4.7895    0.0000 N   0  0  0  0  0  0  0  0  0  0  0  0
   11.2767   -4.8019    0.0000 N   0  0  0  0  0  0  0  0  0  0  0  0
   14.1767   -3.1293    0.0000 C   0  0  0  0  0  0  0  0  0  0  0  0
   12.0381   -4.3776    0.0000 C   0  0  0  0  0  0  0  0  0  0  0  0
   14.8966   -4.3776    0.0000 C   0  0  0  0  0  0  0  0  0  0  0  0
    9.9453   -4.7895    0.0000 C   0  0  0  0  0  0  0  0  0  0  0  0
   12.7413   -3.1293    0.0000 C   0  0  0  0  0  0  0  0  0  0  0  0
   14.1767   -5.6132    0.0000 C   0  0  0  0  0  0  0  0  0  0  0  0
   10.1949   -5.5758    0.0000 C   0  0  0  0  0  0  0  0  0  0  0  0
   15.6205   -3.1376    0.0000 C   0  0  0  0  0  0  0  0  0  0  0  0
   12.0381   -3.5495    0.0000 C   0  0  0  0  0  0  0  0  0  0  0  0
   10.6068   -4.3026    0.0000 C   0  0  0  0  0  0  0  0  0  0  0  0
   11.0188   -5.5758    0.0000 C   0  0  0  0  0  0  0  0  0  0  0  0
   13.7732   -6.3248    0.0000 C   0  0  0  0  0  0  0  0  0  0  0  0
   14.5886   -6.3248    0.0000 C   0  0  0  0  0  0  0  0  0  0  0  0
    9.1671   -4.5273    0.0000 N   0  0  0  0  0  0  0  0  0  0  0  0
   14.1767   -2.3055    0.0000 O   0  0  0  0  0  0  0  0  0  0  0  0
   15.6205   -2.3138    0.0000 O   0  0  0  0  0  0  0  0  0  0  0  0
   11.3141   -3.1376    0.0000 F   0  0  0  0  0  0  0  0  0  0  0  0
   16.3237   -3.5495    0.0000 O   0  0  0  0  0  0  0  0  0  0  0  0
    9.7039   -6.2374    0.0000 C   0  0  0  0  0  0  0  0  0  0  0  0
   10.0284   -6.9864    0.0000 N   0  0  0  0  0  0  0  0  0  0  0  0
    8.9536   -3.7304    0.0000 O   0  0  0  0  0  0  0  0  0  0  0  0
    8.1567   -3.5168    0.0000 C   0  0  0  0  0  0  0  0  0  0  0  0
    0.0000    0.0000    0.0000 H   0  0  0  0  0  0  0  0  0  0  0  0
    0.0000    0.0000    0.0000 H   0  0  0  0  0  0  0  0  0  0  0  0
    0.0000    0.0000    0.0000 H   0  0  0  0  0  0  0  0  0  0  0  0
    0.0000    0.0000    0.0000 H   0  0  0  0  0  0  0  0  0  0  0  0
    0.0000    0.0000    0.0000 H   0  0  0  0  0  0  0  0  0  0  0  0
    0.0000    0.0000    0.0000 H   0  0  0  0  0  0  0  0  0  0  0  0
    0.0000    0.0000    0.0000 H   0  0  0  0  0  0  0  0  0  0  0  0
    0.0000    0.0000    0.0000 H   0  0  0  0  0  0  0  0  0  0  0  0
    0.0000    0.0000    0.0000 H   0  0  0  0  0  0  0  0  0  0  0  0
    0.0000    0.0000    0.0000 H   0  0  0  0  0  0  0  0  0  0  0  0
    0.0000    0.0000    0.0000 H   0  0  0  0  0  0  0  0  0  0  0  0
    0.0000    0.0000    0.0000 H   0  0  0  0  0  0  0  0  0  0  0  0
    0.0000    0.0000    0.0000 H   0  0  0  0  0  0  0  0  0  0  0  0
    0.0000    0.0000    0.0000 H   0  0  0  0  0  0  0  0  0  0  0  0
    0.0000    0.0000    0.0000 H   0  0  0  0  0  0  0  0  0  0  0  0
    0.0000    0.0000    0.0000 H   0  0  0  0  0  0  0  0  0  0  0  0
    0.0000    0.0000    0.0000 H   0  0  0  0  0  0  0  0  0  0  0  0
    0.0000    0.0000    0.0000 H   0  0  0  0  0  0  0  0  0  0  0  0
    0.0000    0.0000    0.0000 H   0  0  0  0  0  0  0  0  0  0  0  0
    0.0000    0.0000    0.0000 H   0  0  0  0  0  0  0  0  0  0  0  0
  2  1  2  0
  3  9  2  0
  4  1  1  0
  5  1  1  0
  6  8  1  0
  7  2  1  0
  8  5  2  0
  9  4  1  0
 10 16  1  0
 11  2  1  0
 12  4  1  0
 13 17  1  0
 14  3  1  0
 15  8  1  0
 16  6  1  0
 17  6  1  0
 18 12  1  0
 19 12  1  0
 20 10  2  0
 21  7  2  0
 22 14  2  0
 23 15  1  0
 24 14  1  0
 25 13  1  0
 26 25  1  0
  7  3  1  0
 11 15  2  0
 19 18  1  0
 13 10  1  0
 20 27  1  0
 27 28  1  0
  9 29  1  0
 11 30  1  0
 12 31  1  0
 13 32  1  0
 16 33  1  0
 16 34  1  0
 17 35  1  0
 17 36  1  0
 18 37  1  0
 18 38  1  0
 19 39  1  0
 19 40  1  0
 24 41  1  0
 25 42  1  0
 25 43  1  0
 26 44  1  0
 26 45  1  0
 28 46  1  0
 28 47  1  0
 28 48  1  0
M  END
>  <ALOGPS_LOGP>  (1) 
-0.82

>  <ALOGPS_LOGS>  (1) 
-3.27

>  <ALOGPS_SOLUBILITY>  (1) 
2.10e-01 g/l

>  <DATABASE_ID>  (1) 
DB01155

>  <DATABASE_NAME>  (1) 
drugbank

>  <DRUGBANK_ID>  (1) 
DB01155

>  <DRUG_GROUPS>  (1) 
approved; investigational

>  <EXACT_MASS>  (1) 
389.149932358

>  <FORMULA>  (1) 
C18H20FN5O4

>  <GENERIC_NAME>  (1) 
Gemifloxacin

>  <INCHI_IDENTIFIER>  (1) 
InChI=1S/C18H20FN5O4/c1-28-22-14-8-23(6-9(14)5-20)17-13(19)4-11-15(25)12(18(26)27)7-24(10-2-3-10)16(11)21-17/h4,7,9-10H,2-3,5-6,8,20H2,1H3,(H,26,27)/b22-14+

>  <INCHI_KEY>  (1) 
ZRCVYEYHRGVLOC-HYARGMPZSA-N

>  <JCHEM_ACCEPTOR_COUNT>  (1) 
9

>  <JCHEM_AVERAGE_POLARIZABILITY>  (1) 
39.295747882714736

>  <JCHEM_BIOAVAILABILITY>  (1) 
1

>  <JCHEM_DONOR_COUNT>  (1) 
2

>  <JCHEM_FORMAL_CHARGE>  (1) 
0

>  <JCHEM_GHOSE_FILTER>  (1) 
0

>  <JCHEM_IUPAC>  (1) 
7-[(4Z)-3-(aminomethyl)-4-(methoxyimino)pyrrolidin-1-yl]-1-cyclopropyl-6-fluoro-4-oxo-1,4-dihydro-1,8-naphthyridine-3-carboxylic acid

>  <JCHEM_LOGP>  (1) 
-0.9184243869137297

>  <JCHEM_MDDR_LIKE_RULE>  (1) 
0

>  <JCHEM_NUMBER_OF_RINGS>  (1) 
4

>  <JCHEM_PHYSIOLOGICAL_CHARGE>  (1) 
0

>  <JCHEM_PKA_STRONGEST_ACIDIC>  (1) 
5.5331782535872795

>  <JCHEM_PKA_STRONGEST_BASIC>  (1) 
9.534415369849178

>  <JCHEM_POLAR_SURFACE_AREA>  (1) 
121.35000000000001

>  <JCHEM_REFRACTIVITY>  (1) 
99.74079999999998

>  <JCHEM_ROTATABLE_BOND_COUNT>  (1) 
5

>  <JCHEM_RULE_OF_FIVE>  (1) 
1

>  <JCHEM_TRADITIONAL_IUPAC>  (1) 
gemifloxacin

>  <JCHEM_VEBER_RULE>  (1) 
0

>  <MOLECULAR_WEIGHT>  (1) 
389.3809

>  <PRODUCTS>  (1) 
Factive

>  <SECONDARY_ACCESSION_NUMBERS>  (1) 
APRD00053

>  <SMILES>  (1) 
CO\N=C1/CN(CC1CN)C1=NC2=C(C=C1F)C(=O)C(=CN2C1CC1)C(O)=O

$$$$
