
     RDKit          2D

140147  0  0  0  0  0  0  0  0999 V2000
    1.1573   -0.2127    0.0000 N   0  0  0  0  0  0  0  0  0  0  0  0
    0.4450    0.2027    0.0000 C   0  0  0  0  0  0  0  0  0  0  0  0
   -0.2670    1.4391    0.0000 N   0  0  0  0  0  0  0  0  0  0  0  0
   -0.9842    1.0237    0.0000 C   0  0  0  0  0  0  0  0  0  0  0  0
   -2.5371    1.4391    0.0000 N   0  0  0  0  0  0  0  0  0  0  0  0
    0.4450    1.0237    0.0000 C   0  0  0  0  0  0  0  0  0  0  0  0
    1.1573   -1.0286    0.0000 C   0  0  0  0  0  0  0  0  0  0  0  0
   -0.2670   -1.0286    0.0000 N   0  0  0  0  0  0  0  0  0  0  0  0
   -3.8477   -1.4441    0.0000 C   0  0  0  0  0  0  0  0  0  0  0  0
   -3.2640    1.0335    0.0000 C   0  0  0  0  0  0  0  0  0  0  0  0
    0.4450   -1.4441    0.0000 C   0  0  0  0  0  0  0  0  0  0  0  0
   -4.6637   -0.9693    0.0000 C   0  0  0  0  0  0  0  0  0  0  0  0
   -1.6963   -1.0286    0.0000 C   0  0  0  0  0  0  0  0  0  0  0  0
   -4.5598   -2.6854    0.0000 C   0  0  0  0  0  0  0  0  0  0  0  0
   -4.6883    1.0533    0.0000 N   0  0  0  0  0  0  0  0  0  0  0  0
   -3.8477   -2.2750    0.0000 N   0  0  0  0  0  0  0  0  0  0  0  0
   -1.7062    1.4391    0.0000 C   0  0  0  0  0  0  0  0  0  0  0  0
   -4.5697   -3.5064    0.0000 C   0  0  0  0  0  0  0  0  0  0  0  0
   -2.4184   -1.4441    0.0000 O   0  0  0  0  0  0  0  0  0  0  0  0
    1.8694    0.2027    0.0000 C   0  0  0  0  0  0  0  0  0  0  0  0
   -0.9842   -1.4441    0.0000 C   0  0  0  0  0  0  0  0  0  0  0  0
    1.8694   -1.4540    0.0000 C   0  0  0  0  0  0  0  0  0  0  0  0
    2.5816   -0.2127    0.0000 C   0  0  0  0  0  0  0  0  0  0  0  0
    2.5816   -1.0286    0.0000 C   0  0  0  0  0  0  0  0  0  0  0  0
   -3.9614    1.4638    0.0000 C   0  0  0  0  0  0  0  0  0  0  0  0
   -3.1305   -1.0286    0.0000 C   0  0  0  0  0  0  0  0  0  0  0  0
    4.5202    2.4134    0.0000 N   0  0  0  0  0  0  0  0  0  0  0  0
   -5.2819   -3.9218    0.0000 N   0  0  0  0  0  0  0  0  0  0  0  0
    3.8279    1.3303    0.0000 C   0  0  0  0  0  0  0  0  0  0  0  0
    3.8279    0.5044    0.0000 S   0  0  0  0  0  0  0  0  0  0  0  0
   -0.2670   -0.2127    0.0000 O   0  0  0  0  0  0  0  0  0  0  0  0
    1.1573    1.4490    0.0000 C   0  0  0  0  0  0  0  0  0  0  0  0
   -0.9842    0.2027    0.0000 O   0  0  0  0  0  0  0  0  0  0  0  0
    3.4124   -0.2127    0.0000 C   0  0  0  0  0  0  0  0  0  0  0  0
   -3.2690    0.2077    0.0000 O   0  0  0  0  0  0  0  0  0  0  0  0
    3.7239    2.0721    0.0000 C   0  0  0  0  0  0  0  0  0  0  0  0
   -5.3857   -1.3797    0.0000 O   0  0  0  0  0  0  0  0  0  0  0  0
    0.4450   -2.2750    0.0000 O   0  0  0  0  0  0  0  0  0  0  0  0
   -1.6963   -0.2077    0.0000 O   0  0  0  0  0  0  0  0  0  0  0  0
   -3.8576   -3.9218    0.0000 C   0  0  0  0  0  0  0  0  0  0  0  0
   -5.2819   -2.2750    0.0000 O   0  0  0  0  0  0  0  0  0  0  0  0
    1.1573    3.9168    0.0000 C   0  0  0  0  0  0  0  0  0  0  0  0
    4.6588    1.6863    0.0000 C   0  0  0  0  0  0  0  0  0  0  0  0
    1.1573    4.7427    0.0000 N   0  0  0  0  0  0  0  0  0  0  0  0
    3.3086   -1.4441    0.0000 O   0  0  0  0  0  0  0  0  0  0  0  0
   -0.9842   -2.2750    0.0000 C   0  0  0  0  0  0  0  0  0  0  0  0
    1.8792    3.5015    0.0000 C   0  0  0  0  0  0  0  0  0  0  0  0
    0.4450    3.5015    0.0000 C   0  0  0  0  0  0  0  0  0  0  0  0
    5.3857    1.3451    0.0000 C   0  0  0  0  0  0  0  0  0  0  0  0
    4.7923    2.7003    0.0000 C   0  0  0  0  0  0  0  0  0  0  0  0
    5.2374    2.0920    0.0000 C   0  0  0  0  0  0  0  0  0  0  0  0
    4.5498    3.2937    0.0000 C   0  0  0  0  0  0  0  0  0  0  0  0
   -2.7794    2.2255    0.0000 C   0  0  0  0  0  0  0  0  0  0  0  0
   -0.2670    2.2650    0.0000 C   0  0  0  0  0  0  0  0  0  0  0  0
    1.1573    2.2650    0.0000 C   0  0  0  0  0  0  0  0  0  0  0  0
    0.4450    2.6804    0.0000 C   0  0  0  0  0  0  0  0  0  0  0  0
    1.8792    2.6804    0.0000 C   0  0  0  0  0  0  0  0  0  0  0  0
   -1.4441    2.2205    0.0000 C   0  0  0  0  0  0  0  0  0  0  0  0
   -3.1355   -3.5015    0.0000 O   0  0  0  0  0  0  0  0  0  0  0  0
   -3.9515    2.2849    0.0000 C   0  0  0  0  0  0  0  0  0  0  0  0
   -2.1118    2.7101    0.0000 C   0  0  0  0  0  0  0  0  0  0  0  0
   -3.1305   -0.2077    0.0000 C   0  0  0  0  0  0  0  0  0  0  0  0
   -5.2819   -4.7477    0.0000 C   0  0  0  0  0  0  0  0  0  0  0  0
    0.4450    5.1581    0.0000 C   0  0  0  0  0  0  0  0  0  0  0  0
    1.8694    5.1631    0.0000 C   0  0  0  0  0  0  0  0  0  0  0  0
   -3.8477   -4.7477    0.0000 C   0  0  0  0  0  0  0  0  0  0  0  0
   -0.2670   -2.6756    0.0000 C   0  0  0  0  0  0  0  0  0  0  0  0
   -1.7062   -2.6756    0.0000 C   0  0  0  0  0  0  0  0  0  0  0  0
   -3.2344    2.6804    0.0000 C   0  0  0  0  0  0  0  0  0  0  0  0
   -4.5697   -5.1631    0.0000 C   0  0  0  0  0  0  0  0  0  0  0  0
   -1.7062   -3.5064    0.0000 C   0  0  0  0  0  0  0  0  0  0  0  0
   -0.2670   -3.5064    0.0000 C   0  0  0  0  0  0  0  0  0  0  0  0
   -0.9842   -3.9218    0.0000 C   0  0  0  0  0  0  0  0  0  0  0  0
    0.0000    0.0000    0.0000 H   0  0  0  0  0  0  0  0  0  0  0  0
    0.0000    0.0000    0.0000 H   0  0  0  0  0  0  0  0  0  0  0  0
    0.0000    0.0000    0.0000 H   0  0  0  0  0  0  0  0  0  0  0  0
    0.0000    0.0000    0.0000 H   0  0  0  0  0  0  0  0  0  0  0  0
    0.0000    0.0000    0.0000 H   0  0  0  0  0  0  0  0  0  0  0  0
    0.0000    0.0000    0.0000 H   0  0  0  0  0  0  0  0  0  0  0  0
    0.0000    0.0000    0.0000 H   0  0  0  0  0  0  0  0  0  0  0  0
    0.0000    0.0000    0.0000 H   0  0  0  0  0  0  0  0  0  0  0  0
    0.0000    0.0000    0.0000 H   0  0  0  0  0  0  0  0  0  0  0  0
    0.0000    0.0000    0.0000 H   0  0  0  0  0  0  0  0  0  0  0  0
    0.0000    0.0000    0.0000 H   0  0  0  0  0  0  0  0  0  0  0  0
    0.0000    0.0000    0.0000 H   0  0  0  0  0  0  0  0  0  0  0  0
    0.0000    0.0000    0.0000 H   0  0  0  0  0  0  0  0  0  0  0  0
    0.0000    0.0000    0.0000 H   0  0  0  0  0  0  0  0  0  0  0  0
    0.0000    0.0000    0.0000 H   0  0  0  0  0  0  0  0  0  0  0  0
    0.0000    0.0000    0.0000 H   0  0  0  0  0  0  0  0  0  0  0  0
    0.0000    0.0000    0.0000 H   0  0  0  0  0  0  0  0  0  0  0  0
    0.0000    0.0000    0.0000 H   0  0  0  0  0  0  0  0  0  0  0  0
    0.0000    0.0000    0.0000 H   0  0  0  0  0  0  0  0  0  0  0  0
    0.0000    0.0000    0.0000 H   0  0  0  0  0  0  0  0  0  0  0  0
    0.0000    0.0000    0.0000 H   0  0  0  0  0  0  0  0  0  0  0  0
    0.0000    0.0000    0.0000 H   0  0  0  0  0  0  0  0  0  0  0  0
    0.0000    0.0000    0.0000 H   0  0  0  0  0  0  0  0  0  0  0  0
    0.0000    0.0000    0.0000 H   0  0  0  0  0  0  0  0  0  0  0  0
    0.0000    0.0000    0.0000 H   0  0  0  0  0  0  0  0  0  0  0  0
    0.0000    0.0000    0.0000 H   0  0  0  0  0  0  0  0  0  0  0  0
    0.0000    0.0000    0.0000 H   0  0  0  0  0  0  0  0  0  0  0  0
    0.0000    0.0000    0.0000 H   0  0  0  0  0  0  0  0  0  0  0  0
    0.0000    0.0000    0.0000 H   0  0  0  0  0  0  0  0  0  0  0  0
    0.0000    0.0000    0.0000 H   0  0  0  0  0  0  0  0  0  0  0  0
    0.0000    0.0000    0.0000 H   0  0  0  0  0  0  0  0  0  0  0  0
    0.0000    0.0000    0.0000 H   0  0  0  0  0  0  0  0  0  0  0  0
    0.0000    0.0000    0.0000 H   0  0  0  0  0  0  0  0  0  0  0  0
    0.0000    0.0000    0.0000 H   0  0  0  0  0  0  0  0  0  0  0  0
    0.0000    0.0000    0.0000 H   0  0  0  0  0  0  0  0  0  0  0  0
    0.0000    0.0000    0.0000 H   0  0  0  0  0  0  0  0  0  0  0  0
    0.0000    0.0000    0.0000 H   0  0  0  0  0  0  0  0  0  0  0  0
    0.0000    0.0000    0.0000 H   0  0  0  0  0  0  0  0  0  0  0  0
    0.0000    0.0000    0.0000 H   0  0  0  0  0  0  0  0  0  0  0  0
    0.0000    0.0000    0.0000 H   0  0  0  0  0  0  0  0  0  0  0  0
    0.0000    0.0000    0.0000 H   0  0  0  0  0  0  0  0  0  0  0  0
    0.0000    0.0000    0.0000 H   0  0  0  0  0  0  0  0  0  0  0  0
    0.0000    0.0000    0.0000 H   0  0  0  0  0  0  0  0  0  0  0  0
    0.0000    0.0000    0.0000 H   0  0  0  0  0  0  0  0  0  0  0  0
    0.0000    0.0000    0.0000 H   0  0  0  0  0  0  0  0  0  0  0  0
    0.0000    0.0000    0.0000 H   0  0  0  0  0  0  0  0  0  0  0  0
    0.0000    0.0000    0.0000 H   0  0  0  0  0  0  0  0  0  0  0  0
    0.0000    0.0000    0.0000 H   0  0  0  0  0  0  0  0  0  0  0  0
    0.0000    0.0000    0.0000 H   0  0  0  0  0  0  0  0  0  0  0  0
    0.0000    0.0000    0.0000 H   0  0  0  0  0  0  0  0  0  0  0  0
    0.0000    0.0000    0.0000 H   0  0  0  0  0  0  0  0  0  0  0  0
    0.0000    0.0000    0.0000 H   0  0  0  0  0  0  0  0  0  0  0  0
    0.0000    0.0000    0.0000 H   0  0  0  0  0  0  0  0  0  0  0  0
    0.0000    0.0000    0.0000 H   0  0  0  0  0  0  0  0  0  0  0  0
    0.0000    0.0000    0.0000 H   0  0  0  0  0  0  0  0  0  0  0  0
    0.0000    0.0000    0.0000 H   0  0  0  0  0  0  0  0  0  0  0  0
    0.0000    0.0000    0.0000 H   0  0  0  0  0  0  0  0  0  0  0  0
    0.0000    0.0000    0.0000 H   0  0  0  0  0  0  0  0  0  0  0  0
    0.0000    0.0000    0.0000 H   0  0  0  0  0  0  0  0  0  0  0  0
    0.0000    0.0000    0.0000 H   0  0  0  0  0  0  0  0  0  0  0  0
    0.0000    0.0000    0.0000 H   0  0  0  0  0  0  0  0  0  0  0  0
    0.0000    0.0000    0.0000 H   0  0  0  0  0  0  0  0  0  0  0  0
    0.0000    0.0000    0.0000 H   0  0  0  0  0  0  0  0  0  0  0  0
    0.0000    0.0000    0.0000 H   0  0  0  0  0  0  0  0  0  0  0  0
    0.0000    0.0000    0.0000 H   0  0  0  0  0  0  0  0  0  0  0  0
    0.0000    0.0000    0.0000 H   0  0  0  0  0  0  0  0  0  0  0  0
    0.0000    0.0000    0.0000 H   0  0  0  0  0  0  0  0  0  0  0  0
  2  1  1  0
  3  6  1  0
  4  3  1  0
  5 17  1  0
  6  2  1  0
  7  1  1  0
  8 11  1  0
  9 26  1  0
 10  5  1  0
  7 11  1  0
 12  9  1  0
 13 21  1  0
 14 16  1  0
 15 25  1  0
  9 16  1  6
 17  4  1  0
 18 14  1  0
 19 13  1  0
 20  1  1  0
 21  8  1  0
 22  7  1  0
 23 20  1  0
 24 23  1  0
 25 10  1  0
 26 19  1  0
 27 36  1  0
 28 18  2  0
 29 30  1  6
 30 34  1  0
 31  2  2  0
  6 32  1  6
 33  4  2  0
 23 34  1  6
 35 10  2  0
 36 29  1  0
 37 12  2  0
 38 11  2  0
 39 13  2  0
 40 18  1  0
 41 14  2  0
 42 47  2  0
 43 29  1  0
 44 42  1  0
 45 24  2  0
 21 46  1  6
 47 57  1  0
 48 56  2  0
 49 43  1  0
 50 43  1  0
 51 49  1  0
 52 50  1  0
 53  5  1  0
 54  3  1  0
 55 32  1  0
 56 55  1  0
 57 55  2  0
 58 17  1  0
 59 40  1  0
 25 60  1  6
 61 58  1  0
 26 62  1  1
 63 28  1  0
 64 44  1  0
 65 44  1  0
 66 40  2  0
 67 46  2  0
 68 46  1  0
 69 60  1  0
 70 66  1  0
 71 68  2  0
 72 67  1  0
 73 71  1  0
 24 22  1  0
 42 48  1  0
 61 53  1  0
 52 27  1  0
 51 27  1  0
 73 72  2  0
 12 15  1  0
 70 63  2  0
  6 74  1  0
  7 75  1  6
  8 76  1  0
  9 77  1  0
 15 78  1  0
 16 79  1  0
 17 80  1  6
 20 81  1  0
 20 82  1  0
 21 83  1  0
 22 84  1  0
 22 85  1  0
 23 86  1  0
 25 87  1  0
 26 88  1  0
 29 89  1  0
 32 90  1  0
 32 91  1  0
 34 92  1  0
 34 93  1  0
 36 94  1  0
 36 95  1  0
 43 96  1  0
 47 97  1  0
 48 98  1  0
 49 99  1  0
 49100  1  0
 50101  1  0
 50102  1  0
 51103  1  0
 51104  1  0
 52105  1  0
 52106  1  0
 53107  1  0
 53108  1  0
 54109  1  0
 54110  1  0
 54111  1  0
 56112  1  0
 57113  1  0
 58114  1  0
 58115  1  0
 59116  1  0
 60117  1  0
 60118  1  0
 61119  1  0
 61120  1  0
 62121  1  0
 62122  1  0
 62123  1  0
 63124  1  0
 64125  1  0
 64126  1  0
 64127  1  0
 65128  1  0
 65129  1  0
 65130  1  0
 66131  1  0
 67132  1  0
 68133  1  0
 69134  1  0
 69135  1  0
 69136  1  0
 70137  1  0
 71138  1  0
 72139  1  0
 73140  1  0
M  END
>  <ALOGPS_LOGP>  (1) 
2.99

>  <ALOGPS_LOGS>  (1) 
-4.36

>  <ALOGPS_SOLUBILITY>  (1) 
4.45e-02 g/l

>  <DATABASE_ID>  (1) 
DB01369

>  <DATABASE_NAME>  (1) 
drugbank

>  <DRUGBANK_ID>  (1) 
DB01369

>  <DRUG_GROUPS>  (1) 
approved

>  <EXACT_MASS>  (1) 
1021.473160567

>  <FORMULA>  (1) 
C53H67N9O10S

>  <GENERIC_NAME>  (1) 
Quinupristin

>  <INCHI_IDENTIFIER>  (1) 
InChI=1S/C53H67N9O10S/c1-6-37-50(68)61-23-11-14-38(61)51(69)59(5)40(26-32-16-18-36(19-17-32)58(3)4)52(70)62-28-35(30-73-43-29-60-24-20-33(43)21-25-60)42(64)27-39(62)47(65)57-45(34-12-8-7-9-13-34)53(71)72-31(2)44(48(66)55-37)56-49(67)46-41(63)15-10-22-54-46/h7-10,12-13,15-19,22,31,33,35,37-40,43-45,63H,6,11,14,20-21,23-30H2,1-5H3,(H,55,66)(H,56,67)(H,57,65)/t31-,35+,37-,38+,39+,40+,43-,44+,45+/m1/s1

>  <INCHI_KEY>  (1) 
WTHRRGMBUAHGNI-LCYNINFDSA-N

>  <JCHEM_ACCEPTOR_COUNT>  (1) 
12

>  <JCHEM_ATOM_COUNT>  (1) 
140

>  <JCHEM_AVERAGE_POLARIZABILITY>  (1) 
107.45345121503749

>  <JCHEM_BIOAVAILABILITY>  (1) 
0

>  <JCHEM_DONOR_COUNT>  (1) 
4

>  <JCHEM_FORMAL_CHARGE>  (1) 
0

>  <JCHEM_GHOSE_FILTER>  (1) 
0

>  <JCHEM_IUPAC>  (1) 
N-[(3S,6S,12R,15S,16R,19S,22S,25R)-25-{[(3S)-1-azabicyclo[2.2.2]octan-3-ylsulfanyl]methyl}-3-{[4-(dimethylamino)phenyl]methyl}-12-ethyl-4,16-dimethyl-2,5,11,14,18,21,24-heptaoxo-19-phenyl-17-oxa-1,4,10,13,20-pentaazatricyclo[20.4.0.0⁶,¹⁰]hexacosan-15-yl]-3-hydroxypyridine-2-carboxamide

>  <JCHEM_LOGP>  (1) 
2.178144579847521

>  <JCHEM_MDDR_LIKE_RULE>  (1) 
1

>  <JCHEM_NUMBER_OF_RINGS>  (1) 
8

>  <JCHEM_PHYSIOLOGICAL_CHARGE>  (1) 
1

>  <JCHEM_PKA>  (1) 
11.427151889418015

>  <JCHEM_PKA_STRONGEST_ACIDIC>  (1) 
7.447667517182142

>  <JCHEM_PKA_STRONGEST_BASIC>  (1) 
8.282216599534259

>  <JCHEM_POLAR_SURFACE_AREA>  (1) 
231.19999999999996

>  <JCHEM_REFRACTIVITY>  (1) 
272.84029999999996

>  <JCHEM_ROTATABLE_BOND_COUNT>  (1) 
10

>  <JCHEM_RULE_OF_FIVE>  (1) 
0

>  <JCHEM_TRADITIONAL_IUPAC>  (1) 
N-[(3S,6S,12R,15S,16R,19S,22S,25R)-25-{[(3S)-1-azabicyclo[2.2.2]octan-3-ylsulfanyl]methyl}-3-{[4-(dimethylamino)phenyl]methyl}-12-ethyl-4,16-dimethyl-2,5,11,14,18,21,24-heptaoxo-19-phenyl-17-oxa-1,4,10,13,20-pentaazatricyclo[20.4.0.0⁶,¹⁰]hexacosan-15-yl]-3-hydroxypyridine-2-carboxamide

>  <JCHEM_VEBER_RULE>  (1) 
0

>  <MOLECULAR_WEIGHT>  (1) 
1022.23

>  <PRODUCTS>  (1) 
Synercid

>  <SALTS>  (1) 
Quinupristin mesylate

>  <SMILES>  (1) 
[H][C@@]12CCCN1C(=O)[C@@H](CC)NC(=O)[C@@H](NC(=O)C1=NC=CC=C1O)[C@@H](C)OC(=O)[C@@H](NC(=O)[C@]1([H])CC(=O)[C@]([H])(CS[C@@H]3CN4CCC3CC4)CN1C(=O)[C@H](CC1=CC=C(C=C1)N(C)C)N(C)C2=O)C1=CC=CC=C1

$$$$
