1260
     RDKit          2D

 62 66  0  0  1  0  0  0  0  0999 V2000
    7.4742   -0.8731    0.0000 O   0  0  0  0  0  0  0  0  0  0  0  0
    6.9362   -2.0785    0.0000 O   0  0  0  0  0  0  0  0  0  0  0  0
    5.3411    1.8278    0.0000 O   0  0  0  0  0  0  0  0  0  0  0  0
    7.2460    0.5198    0.0000 O   0  0  0  0  0  0  0  0  0  0  0  0
    8.7528   -0.1526    0.0000 O   0  0  0  0  0  0  0  0  0  0  0  0
    1.6500    2.3594    0.0000 O   0  0  0  0  0  0  0  0  0  0  0  0
    6.0555   -0.2347    0.0000 C   0  0  0  0  0  0  0  0  0  0  0  0
    5.3411   -0.6472    0.0000 C   0  0  0  0  0  0  0  0  0  0  0  0
    4.6266   -0.2347    0.0000 C   0  0  0  0  0  0  0  0  0  0  0  0
    6.6637   -0.7851    0.0000 C   0  0  0  0  0  0  0  0  0  0  0  0
    4.6266    0.5903    0.0000 C   0  0  0  0  0  0  0  0  0  0  0  0
    6.3294   -1.5340    0.0000 C   0  0  0  0  0  0  0  0  0  0  0  0
    5.5137   -1.4491    0.0000 C   0  0  0  0  0  0  0  0  0  0  0  0
    6.0555    0.5903    0.0000 C   0  0  0  0  0  0  0  0  0  0  0  0
    5.3411    1.0028    0.0000 C   0  0  0  0  0  0  0  0  0  0  0  0
    3.8890    1.0314    0.0000 C   0  0  0  0  0  0  0  0  0  0  0  0
    3.8890   -0.6759    0.0000 C   0  0  0  0  0  0  0  0  0  0  0  0
    6.7701    0.1778    0.0000 C   0  0  0  0  0  0  0  0  0  0  0  0
    3.1416   -0.2520    0.0000 C   0  0  0  0  0  0  0  0  0  0  0  0
    7.6423   -1.6709    0.0000 C   0  0  0  0  0  0  0  0  0  0  0  0
    7.3315   -0.3007    0.0000 C   0  0  0  0  0  0  0  0  0  0  0  0
    3.1416    0.6075    0.0000 C   0  0  0  0  0  0  0  0  0  0  0  0
    4.6067    1.4383    0.0000 C   0  0  0  0  0  0  0  0  0  0  0  0
    3.9098    1.9262    0.0000 C   0  0  0  0  0  0  0  0  0  0  0  0
    8.0849   -0.6370    0.0000 C   0  0  0  0  0  0  0  0  0  0  0  0
    8.4494   -1.5000    0.0000 C   0  0  0  0  0  0  0  0  0  0  0  0
    8.0541   -2.3857    0.0000 C   0  0  0  0  0  0  0  0  0  0  0  0
    2.3629    1.0490    0.0000 C   0  0  0  0  0  0  0  0  0  0  0  0
    3.1416    2.3857    0.0000 C   0  0  0  0  0  0  0  0  0  0  0  0
    2.3629    1.9442    0.0000 C   0  0  0  0  0  0  0  0  0  0  0  0
    0.0000    0.0000    0.0000 H   0  0  0  0  0  0  0  0  0  0  0  0
    0.0000    0.0000    0.0000 H   0  0  0  0  0  0  0  0  0  0  0  0
    0.0000    0.0000    0.0000 H   0  0  0  0  0  0  0  0  0  0  0  0
    0.0000    0.0000    0.0000 H   0  0  0  0  0  0  0  0  0  0  0  0
    0.0000    0.0000    0.0000 H   0  0  0  0  0  0  0  0  0  0  0  0
    0.0000    0.0000    0.0000 H   0  0  0  0  0  0  0  0  0  0  0  0
    0.0000    0.0000    0.0000 H   0  0  0  0  0  0  0  0  0  0  0  0
    0.0000    0.0000    0.0000 H   0  0  0  0  0  0  0  0  0  0  0  0
    0.0000    0.0000    0.0000 H   0  0  0  0  0  0  0  0  0  0  0  0
    0.0000    0.0000    0.0000 H   0  0  0  0  0  0  0  0  0  0  0  0
    0.0000    0.0000    0.0000 H   0  0  0  0  0  0  0  0  0  0  0  0
    0.0000    0.0000    0.0000 H   0  0  0  0  0  0  0  0  0  0  0  0
    0.0000    0.0000    0.0000 H   0  0  0  0  0  0  0  0  0  0  0  0
    0.0000    0.0000    0.0000 H   0  0  0  0  0  0  0  0  0  0  0  0
    0.0000    0.0000    0.0000 H   0  0  0  0  0  0  0  0  0  0  0  0
    0.0000    0.0000    0.0000 H   0  0  0  0  0  0  0  0  0  0  0  0
    0.0000    0.0000    0.0000 H   0  0  0  0  0  0  0  0  0  0  0  0
    0.0000    0.0000    0.0000 H   0  0  0  0  0  0  0  0  0  0  0  0
    0.0000    0.0000    0.0000 H   0  0  0  0  0  0  0  0  0  0  0  0
    0.0000    0.0000    0.0000 H   0  0  0  0  0  0  0  0  0  0  0  0
    0.0000    0.0000    0.0000 H   0  0  0  0  0  0  0  0  0  0  0  0
    0.0000    0.0000    0.0000 H   0  0  0  0  0  0  0  0  0  0  0  0
    0.0000    0.0000    0.0000 H   0  0  0  0  0  0  0  0  0  0  0  0
    0.0000    0.0000    0.0000 H   0  0  0  0  0  0  0  0  0  0  0  0
    0.0000    0.0000    0.0000 H   0  0  0  0  0  0  0  0  0  0  0  0
    0.0000    0.0000    0.0000 H   0  0  0  0  0  0  0  0  0  0  0  0
    0.0000    0.0000    0.0000 H   0  0  0  0  0  0  0  0  0  0  0  0
    0.0000    0.0000    0.0000 H   0  0  0  0  0  0  0  0  0  0  0  0
    0.0000    0.0000    0.0000 H   0  0  0  0  0  0  0  0  0  0  0  0
    0.0000    0.0000    0.0000 H   0  0  0  0  0  0  0  0  0  0  0  0
    0.0000    0.0000    0.0000 H   0  0  0  0  0  0  0  0  0  0  0  0
    0.0000    0.0000    0.0000 H   0  0  0  0  0  0  0  0  0  0  0  0
  1 10  1  0
  1 20  1  0
  2 12  1  0
  2 20  1  0
 15  3  1  1
  4 21  2  0
  5 25  1  0
  6 30  2  0
  7  8  1  0
  7 10  1  0
  7 14  1  0
  7 18  1  1
  8  9  1  0
  8 13  1  0
  9 11  1  0
  9 17  1  0
 10 12  1  0
 10 21  1  1
 11 15  1  0
 11 16  1  0
 12 13  1  0
 14 15  1  0
 16 22  1  0
 16 23  1  1
 16 24  1  0
 17 19  1  0
 19 22  1  0
 20 26  1  0
 20 27  1  0
 21 25  1  0
 22 28  2  0
 24 29  2  0
 28 30  1  0
 29 30  1  0
  3 31  1  0
  5 32  1  0
  8 33  1  6
  9 34  1  1
 11 35  1  6
 12 36  1  1
 13 37  1  0
 13 38  1  0
 14 39  1  0
 14 40  1  0
 15 41  1  0
 17 42  1  0
 17 43  1  0
 18 44  1  0
 18 45  1  0
 18 46  1  0
 19 47  1  0
 19 48  1  0
 23 49  1  0
 23 50  1  0
 23 51  1  0
 24 52  1  0
 25 53  1  0
 25 54  1  0
 26 55  1  0
 26 56  1  0
 26 57  1  0
 27 58  1  0
 27 59  1  0
 27 60  1  0
 28 61  1  0
 29 62  1  0
M  END
>  <ALOGPS_LOGP>  (1) 
2.31

>  <ALOGPS_LOGS>  (1) 
-3.85

>  <ALOGPS_SOLUBILITY>  (1) 
5.94e-02 g/l

>  <DATABASE_ID>  (1) 
DB01260

>  <DATABASE_NAME>  (1) 
drugbank

>  <DRUGBANK_ID>  (1) 
DB01260

>  <DRUG_GROUPS>  (1) 
approved; investigational

>  <EXACT_MASS>  (1) 
416.219888756

>  <FORMULA>  (1) 
C24H32O6

>  <GENERIC_NAME>  (1) 
Desonide

>  <INCHI_IDENTIFIER>  (1) 
InChI=1S/C24H32O6/c1-21(2)29-19-10-16-15-6-5-13-9-14(26)7-8-22(13,3)20(15)17(27)11-23(16,4)24(19,30-21)18(28)12-25/h7-9,15-17,19-20,25,27H,5-6,10-12H2,1-4H3/t15-,16-,17-,19+,20+,22-,23-,24+/m0/s1

>  <INCHI_KEY>  (1) 
WBGKWQHBNHJJPZ-LECWWXJVSA-N

>  <INTERNATIONAL_BRANDS>  (1) 
Desocort; Tridesilon

>  <JCHEM_ACCEPTOR_COUNT>  (1) 
6

>  <JCHEM_AVERAGE_POLARIZABILITY>  (1) 
44.76871637996507

>  <JCHEM_BIOAVAILABILITY>  (1) 
1

>  <JCHEM_DONOR_COUNT>  (1) 
2

>  <JCHEM_FORMAL_CHARGE>  (1) 
0

>  <JCHEM_GHOSE_FILTER>  (1) 
1

>  <JCHEM_IUPAC>  (1) 
(1S,2S,4R,8S,9S,11S,12S,13R)-11-hydroxy-8-(2-hydroxyacetyl)-6,6,9,13-tetramethyl-5,7-dioxapentacyclo[10.8.0.0²,⁹.0⁴,⁸.0¹³,¹⁸]icosa-14,17-dien-16-one

>  <JCHEM_LOGP>  (1) 
1.9005109329999987

>  <JCHEM_MDDR_LIKE_RULE>  (1) 
0

>  <JCHEM_NUMBER_OF_RINGS>  (1) 
5

>  <JCHEM_PHYSIOLOGICAL_CHARGE>  (1) 
0

>  <JCHEM_PKA>  (1) 
14.912602213496754

>  <JCHEM_PKA_STRONGEST_ACIDIC>  (1) 
13.743100542336453

>  <JCHEM_PKA_STRONGEST_BASIC>  (1) 
-2.8514154595284635

>  <JCHEM_POLAR_SURFACE_AREA>  (1) 
93.06

>  <JCHEM_REFRACTIVITY>  (1) 
112.06179999999999

>  <JCHEM_ROTATABLE_BOND_COUNT>  (1) 
2

>  <JCHEM_RULE_OF_FIVE>  (1) 
1

>  <JCHEM_TRADITIONAL_IUPAC>  (1) 
desonide

>  <JCHEM_VEBER_RULE>  (1) 
0

>  <MOLECULAR_WEIGHT>  (1) 
416.5073

>  <PRODUCTS>  (1) 
DesOwen; Desocort Cream 0.05%; Desocort Lotion - 0.05%; Desocort Ointment - 0.05%; Desonate; Desonide; LoKara; Pdp-desonide; Tridesilon 0.05% Desonide Cream; Tridesilon 0.05% Desonide Ointment; Tridesilon Cream; Tridesilon Crm 0.05%; Tridesilon Ont 0.05%; Verdeso

>  <SMILES>  (1) 
[H][C@@]12C[C@@]3([H])[C@]4([H])CCC5=CC(=O)C=C[C@]5(C)[C@@]4([H])[C@@H](O)C[C@]3(C)[C@@]1(OC(C)(C)O2)C(=O)CO

$$$$
