1146
     RDKit          2D

 44 46  0  0  0  0  0  0  0  0999 V2000
    2.3645    0.2063    0.0000 O   0  0  0  0  0  0  0  0  0  0  0  0
    2.3645   -2.2688    0.0000 N   0  0  0  0  0  0  0  0  0  0  0  0
    2.3645   -0.6188    0.0000 C   0  0  0  0  0  0  0  0  0  0  0  0
    1.6500   -1.0313    0.0000 C   0  0  0  0  0  0  0  0  0  0  0  0
    3.0791   -1.0313    0.0000 C   0  0  0  0  0  0  0  0  0  0  0  0
    1.6500   -1.8563    0.0000 C   0  0  0  0  0  0  0  0  0  0  0  0
    3.0791   -1.8563    0.0000 C   0  0  0  0  0  0  0  0  0  0  0  0
    3.0791    0.6188    0.0000 C   0  0  0  0  0  0  0  0  0  0  0  0
    2.3645   -3.0938    0.0000 C   0  0  0  0  0  0  0  0  0  0  0  0
    3.0791    1.4438    0.0000 C   0  0  0  0  0  0  0  0  0  0  0  0
    3.7935    0.2063    0.0000 C   0  0  0  0  0  0  0  0  0  0  0  0
    2.3645    1.8563    0.0000 C   0  0  0  0  0  0  0  0  0  0  0  0
    3.7935   -0.6188    0.0000 C   0  0  0  0  0  0  0  0  0  0  0  0
    3.7935    1.8563    0.0000 C   0  0  0  0  0  0  0  0  0  0  0  0
    4.5080    0.6188    0.0000 C   0  0  0  0  0  0  0  0  0  0  0  0
    2.3645    2.6813    0.0000 C   0  0  0  0  0  0  0  0  0  0  0  0
    4.5080   -1.0313    0.0000 C   0  0  0  0  0  0  0  0  0  0  0  0
    3.7935    2.6813    0.0000 C   0  0  0  0  0  0  0  0  0  0  0  0
    5.2224    0.2063    0.0000 C   0  0  0  0  0  0  0  0  0  0  0  0
    3.0791    3.0938    0.0000 C   0  0  0  0  0  0  0  0  0  0  0  0
    5.2224   -0.6188    0.0000 C   0  0  0  0  0  0  0  0  0  0  0  0
    0.0000    0.0000    0.0000 H   0  0  0  0  0  0  0  0  0  0  0  0
    0.0000    0.0000    0.0000 H   0  0  0  0  0  0  0  0  0  0  0  0
    0.0000    0.0000    0.0000 H   0  0  0  0  0  0  0  0  0  0  0  0
    0.0000    0.0000    0.0000 H   0  0  0  0  0  0  0  0  0  0  0  0
    0.0000    0.0000    0.0000 H   0  0  0  0  0  0  0  0  0  0  0  0
    0.0000    0.0000    0.0000 H   0  0  0  0  0  0  0  0  0  0  0  0
    0.0000    0.0000    0.0000 H   0  0  0  0  0  0  0  0  0  0  0  0
    0.0000    0.0000    0.0000 H   0  0  0  0  0  0  0  0  0  0  0  0
    0.0000    0.0000    0.0000 H   0  0  0  0  0  0  0  0  0  0  0  0
    0.0000    0.0000    0.0000 H   0  0  0  0  0  0  0  0  0  0  0  0
    0.0000    0.0000    0.0000 H   0  0  0  0  0  0  0  0  0  0  0  0
    0.0000    0.0000    0.0000 H   0  0  0  0  0  0  0  0  0  0  0  0
    0.0000    0.0000    0.0000 H   0  0  0  0  0  0  0  0  0  0  0  0
    0.0000    0.0000    0.0000 H   0  0  0  0  0  0  0  0  0  0  0  0
    0.0000    0.0000    0.0000 H   0  0  0  0  0  0  0  0  0  0  0  0
    0.0000    0.0000    0.0000 H   0  0  0  0  0  0  0  0  0  0  0  0
    0.0000    0.0000    0.0000 H   0  0  0  0  0  0  0  0  0  0  0  0
    0.0000    0.0000    0.0000 H   0  0  0  0  0  0  0  0  0  0  0  0
    0.0000    0.0000    0.0000 H   0  0  0  0  0  0  0  0  0  0  0  0
    0.0000    0.0000    0.0000 H   0  0  0  0  0  0  0  0  0  0  0  0
    0.0000    0.0000    0.0000 H   0  0  0  0  0  0  0  0  0  0  0  0
    0.0000    0.0000    0.0000 H   0  0  0  0  0  0  0  0  0  0  0  0
    0.0000    0.0000    0.0000 H   0  0  0  0  0  0  0  0  0  0  0  0
  1  3  1  0
  1  8  1  0
  2  6  1  0
  2  7  1  0
  2  9  1  0
  3  4  1  0
  3  5  1  0
  4  6  1  0
  5  7  1  0
  8 10  1  0
  8 11  1  0
 10 12  2  0
 10 14  1  0
 11 13  2  0
 11 15  1  0
 12 16  1  0
 13 17  1  0
 14 18  2  0
 15 19  2  0
 16 20  2  0
 17 21  2  0
 18 20  1  0
 19 21  1  0
  3 22  1  0
  4 23  1  0
  4 24  1  0
  5 25  1  0
  5 26  1  0
  6 27  1  0
  6 28  1  0
  7 29  1  0
  7 30  1  0
  8 31  1  0
  9 32  1  0
  9 33  1  0
  9 34  1  0
 12 35  1  0
 13 36  1  0
 14 37  1  0
 15 38  1  0
 16 39  1  0
 17 40  1  0
 18 41  1  0
 19 42  1  0
 20 43  1  0
 21 44  1  0
M  END
>  <ALOGPS_LOGP>  (1) 
3.82

>  <ALOGPS_LOGS>  (1) 
-4.18

>  <ALOGPS_SOLUBILITY>  (1) 
1.88e-02 g/l

>  <DATABASE_ID>  (1) 
DB01146

>  <DATABASE_NAME>  (1) 
drugbank

>  <DRUGBANK_ID>  (1) 
DB01146

>  <DRUG_GROUPS>  (1) 
approved

>  <EXACT_MASS>  (1) 
281.177964363

>  <FORMULA>  (1) 
C19H23NO

>  <GENERIC_NAME>  (1) 
Diphenylpyraline

>  <INCHI_IDENTIFIER>  (1) 
InChI=1S/C19H23NO/c1-20-14-12-18(13-15-20)21-19(16-8-4-2-5-9-16)17-10-6-3-7-11-17/h2-11,18-19H,12-15H2,1H3

>  <INCHI_KEY>  (1) 
OWQUZNMMYNAXSL-UHFFFAOYSA-N

>  <INTERNATIONAL_BRANDS>  (1) 
Allergen; Arbid; Belfene; Diafen; Hispril; Histyn; Lergobine; Lyssipoll; Mepiben; Neargal

>  <JCHEM_ACCEPTOR_COUNT>  (1) 
2

>  <JCHEM_AVERAGE_POLARIZABILITY>  (1) 
32.97094669321054

>  <JCHEM_BIOAVAILABILITY>  (1) 
1

>  <JCHEM_DONOR_COUNT>  (1) 
0

>  <JCHEM_FORMAL_CHARGE>  (1) 
0

>  <JCHEM_GHOSE_FILTER>  (1) 
1

>  <JCHEM_IUPAC>  (1) 
4-(diphenylmethoxy)-1-methylpiperidine

>  <JCHEM_LOGP>  (1) 
3.6600688666666668

>  <JCHEM_MDDR_LIKE_RULE>  (1) 
0

>  <JCHEM_NUMBER_OF_RINGS>  (1) 
3

>  <JCHEM_PHYSIOLOGICAL_CHARGE>  (1) 
1

>  <JCHEM_PKA_STRONGEST_BASIC>  (1) 
8.871064002267847

>  <JCHEM_POLAR_SURFACE_AREA>  (1) 
12.47

>  <JCHEM_REFRACTIVITY>  (1) 
87.35900000000004

>  <JCHEM_ROTATABLE_BOND_COUNT>  (1) 
4

>  <JCHEM_RULE_OF_FIVE>  (1) 
1

>  <JCHEM_TRADITIONAL_IUPAC>  (1) 
diphenylpyraline

>  <JCHEM_VEBER_RULE>  (1) 
1

>  <MOLECULAR_WEIGHT>  (1) 
281.392

>  <PRODUCTS>  (1) 
Biohisdex DM Decongestant; Biohisdine DM Decongestant; Corytab; Creo-rectal Adulte; Creo-rectal Enfants/children; Creo-rectal Nourrisson; Emercidin D Tab; Emercreme No4 Ont Efa; Jamp-cough Suppositories Adult; Jamp-suppositories Children; Metrate; Nezger Tab; Oradrine 2 Tab; Oradrine Tablets; Sinugex 38; Vito Bronches Sirop

>  <SALTS>  (1) 
Diphenylpyraline Hydrochloride

>  <SECONDARY_ACCESSION_NUMBERS>  (1) 
APRD00719

>  <SMILES>  (1) 
CN1CCC(CC1)OC(C1=CC=CC=C1)C1=CC=CC=C1

>  <SYNONYMS>  (1) 
Diphenylpyralamine

$$$$
