
     RDKit          2D

 59 63  0  0  0  0  0  0  0  0999 V2000
    5.0588   -0.2021    0.0000 C   0  0  0  0  0  0  0  0  0  0  0  0
    4.3420    0.2104    0.0000 C   0  0  0  0  0  0  0  0  0  0  0  0
    3.6294   -0.2021    0.0000 O   0  0  0  0  0  0  0  0  0  0  0  0
    2.9169    0.2104    0.0000 C   0  0  0  0  0  0  0  0  0  0  0  0
    5.8088    0.1353    0.0000 N   0  0  0  0  0  0  0  0  0  0  0  0
    6.3671   -0.4771    0.0000 N   0  0  0  0  0  0  0  0  0  0  0  0
    4.3420    1.0354    0.0000 C   0  0  0  0  0  0  0  0  0  0  0  0
    5.9546   -1.1897    0.0000 N   0  0  0  0  0  0  0  0  0  0  0  0
    3.6294    1.4480    0.0000 C   0  0  0  0  0  0  0  0  0  0  0  0
    2.9211    1.0354    0.0000 C   0  0  0  0  0  0  0  0  0  0  0  0
    5.1463   -1.0230    0.0000 N   0  0  0  0  0  0  0  0  0  0  0  0
    1.4959   -1.4480    0.0000 C   0  0  0  0  0  0  0  0  0  0  0  0
    2.2085   -1.0272    0.0000 N   0  0  0  0  0  0  0  0  0  0  0  0
    2.2085   -0.2021    0.0000 C   0  0  0  0  0  0  0  0  0  0  0  0
    0.7834   -1.0354    0.0000 C   0  0  0  0  0  0  0  0  0  0  0  0
    3.6294    2.2730    0.0000 O   0  0  0  0  0  0  0  0  0  0  0  0
    1.4959   -2.2730    0.0000 O   0  0  0  0  0  0  0  0  0  0  0  0
    0.7834   -0.2104    0.0000 C   0  0  0  0  0  0  0  0  0  0  0  0
    0.0708   -1.4522    0.0000 C   0  0  0  0  0  0  0  0  0  0  0  0
   -0.6459   -0.2145    0.0000 C   0  0  0  0  0  0  0  0  0  0  0  0
    2.1960    1.4480    0.0000 C   0  0  0  0  0  0  0  0  0  0  0  0
   -0.6417   -1.0396    0.0000 C   0  0  0  0  0  0  0  0  0  0  0  0
    0.0708    0.1979    0.0000 C   0  0  0  0  0  0  0  0  0  0  0  0
    1.4959    0.2104    0.0000 C   0  0  0  0  0  0  0  0  0  0  0  0
   -1.3667    0.1979    0.0000 O   0  0  0  0  0  0  0  0  0  0  0  0
   -4.9338   -0.2354    0.0000 C   0  0  0  0  0  0  0  0  0  0  0  0
    1.4917    1.0272    0.0000 C   0  0  0  0  0  0  0  0  0  0  0  0
   -4.2211    0.1853    0.0000 C   0  0  0  0  0  0  0  0  0  0  0  0
   -2.0792   -0.2228    0.0000 C   0  0  0  0  0  0  0  0  0  0  0  0
   -5.6546    0.1770    0.0000 C   0  0  0  0  0  0  0  0  0  0  0  0
   -4.9296   -1.0522    0.0000 C   0  0  0  0  0  0  0  0  0  0  0  0
   -3.5044   -0.2271    0.0000 C   0  0  0  0  0  0  0  0  0  0  0  0
   -2.7919    0.1896    0.0000 C   0  0  0  0  0  0  0  0  0  0  0  0
   -5.6421   -1.4730    0.0000 C   0  0  0  0  0  0  0  0  0  0  0  0
   -6.3671   -0.2354    0.0000 C   0  0  0  0  0  0  0  0  0  0  0  0
   -6.3671   -1.0605    0.0000 C   0  0  0  0  0  0  0  0  0  0  0  0
    0.0000    0.0000    0.0000 H   0  0  0  0  0  0  0  0  0  0  0  0
    0.0000    0.0000    0.0000 H   0  0  0  0  0  0  0  0  0  0  0  0
    0.0000    0.0000    0.0000 H   0  0  0  0  0  0  0  0  0  0  0  0
    0.0000    0.0000    0.0000 H   0  0  0  0  0  0  0  0  0  0  0  0
    0.0000    0.0000    0.0000 H   0  0  0  0  0  0  0  0  0  0  0  0
    0.0000    0.0000    0.0000 H   0  0  0  0  0  0  0  0  0  0  0  0
    0.0000    0.0000    0.0000 H   0  0  0  0  0  0  0  0  0  0  0  0
    0.0000    0.0000    0.0000 H   0  0  0  0  0  0  0  0  0  0  0  0
    0.0000    0.0000    0.0000 H   0  0  0  0  0  0  0  0  0  0  0  0
    0.0000    0.0000    0.0000 H   0  0  0  0  0  0  0  0  0  0  0  0
    0.0000    0.0000    0.0000 H   0  0  0  0  0  0  0  0  0  0  0  0
    0.0000    0.0000    0.0000 H   0  0  0  0  0  0  0  0  0  0  0  0
    0.0000    0.0000    0.0000 H   0  0  0  0  0  0  0  0  0  0  0  0
    0.0000    0.0000    0.0000 H   0  0  0  0  0  0  0  0  0  0  0  0
    0.0000    0.0000    0.0000 H   0  0  0  0  0  0  0  0  0  0  0  0
    0.0000    0.0000    0.0000 H   0  0  0  0  0  0  0  0  0  0  0  0
    0.0000    0.0000    0.0000 H   0  0  0  0  0  0  0  0  0  0  0  0
    0.0000    0.0000    0.0000 H   0  0  0  0  0  0  0  0  0  0  0  0
    0.0000    0.0000    0.0000 H   0  0  0  0  0  0  0  0  0  0  0  0
    0.0000    0.0000    0.0000 H   0  0  0  0  0  0  0  0  0  0  0  0
    0.0000    0.0000    0.0000 H   0  0  0  0  0  0  0  0  0  0  0  0
    0.0000    0.0000    0.0000 H   0  0  0  0  0  0  0  0  0  0  0  0
    0.0000    0.0000    0.0000 H   0  0  0  0  0  0  0  0  0  0  0  0
  2  1  1  0
  3  2  1  0
  4  3  1  0
  5  1  1  0
  6  5  2  0
  7  2  2  0
  8 11  1  0
  9  7  1  0
 10  9  1  0
 11  1  2  0
 12 13  1  0
 13 14  1  0
 14  4  2  0
 15 12  1  0
 16  9  2  0
 17 12  2  0
 18 15  2  0
 19 15  1  0
 20 22  1  0
 21 10  2  0
 22 19  2  0
 23 18  1  0
 24 14  1  0
 25 20  1  0
 26 28  1  0
 27 21  1  0
 28 32  1  0
 29 25  1  0
 30 26  2  0
 31 26  1  0
 32 33  1  0
 33 29  1  0
 34 31  2  0
 35 30  1  0
 36 34  1  0
  6  8  1  0
  4 10  1  0
 24 27  2  0
 20 23  2  0
 36 35  2  0
  7 37  1  0
  8 38  1  0
 13 39  1  0
 18 40  1  0
 19 41  1  0
 21 42  1  0
 22 43  1  0
 23 44  1  0
 24 45  1  0
 27 46  1  0
 28 47  1  0
 28 48  1  0
 29 49  1  0
 29 50  1  0
 30 51  1  0
 31 52  1  0
 32 53  1  0
 32 54  1  0
 33 55  1  0
 33 56  1  0
 34 57  1  0
 35 58  1  0
 36 59  1  0
M  END
>  <ALOGPS_LOGP>  (1) 
4.82

>  <ALOGPS_LOGS>  (1) 
-5.18

>  <ALOGPS_SOLUBILITY>  (1) 
3.20e-03 g/l

>  <DATABASE_ID>  (1) 
DB01411

>  <DATABASE_NAME>  (1) 
drugbank

>  <DRUGBANK_ID>  (1) 
DB01411

>  <DRUG_GROUPS>  (1) 
approved; investigational

>  <EXACT_MASS>  (1) 
481.175004241

>  <FORMULA>  (1) 
C27H23N5O4

>  <GENERIC_NAME>  (1) 
Pranlukast

>  <INCHI_IDENTIFIER>  (1) 
InChI=1S/C27H23N5O4/c33-23-17-24(26-29-31-32-30-26)36-25-21(23)10-6-11-22(25)28-27(34)19-12-14-20(15-13-19)35-16-5-4-9-18-7-2-1-3-8-18/h1-3,6-8,10-15,17H,4-5,9,16H2,(H,28,34)(H,29,30,31,32)

>  <INCHI_KEY>  (1) 
NBQKINXMPLXUET-UHFFFAOYSA-N

>  <JCHEM_ACCEPTOR_COUNT>  (1) 
7

>  <JCHEM_ATOM_COUNT>  (1) 
59

>  <JCHEM_AVERAGE_POLARIZABILITY>  (1) 
51.41060755431283

>  <JCHEM_BIOAVAILABILITY>  (1) 
1

>  <JCHEM_DONOR_COUNT>  (1) 
2

>  <JCHEM_FORMAL_CHARGE>  (1) 
0

>  <JCHEM_GHOSE_FILTER>  (1) 
0

>  <JCHEM_IUPAC>  (1) 
N-[4-oxo-2-(2H-1,2,3,4-tetrazol-5-yl)-4H-chromen-8-yl]-4-(4-phenylbutoxy)benzamide

>  <JCHEM_LOGP>  (1) 
4.671582699000001

>  <JCHEM_MDDR_LIKE_RULE>  (1) 
1

>  <JCHEM_NUMBER_OF_RINGS>  (1) 
5

>  <JCHEM_PHYSIOLOGICAL_CHARGE>  (1) 
-1

>  <JCHEM_PKA>  (1) 
12.326566240536614

>  <JCHEM_PKA_STRONGEST_ACIDIC>  (1) 
6.860820365838719

>  <JCHEM_PKA_STRONGEST_BASIC>  (1) 
-1.7216053092129253

>  <JCHEM_POLAR_SURFACE_AREA>  (1) 
119.08999999999999

>  <JCHEM_REFRACTIVITY>  (1) 
139.1495

>  <JCHEM_ROTATABLE_BOND_COUNT>  (1) 
9

>  <JCHEM_RULE_OF_FIVE>  (1) 
1

>  <JCHEM_TRADITIONAL_IUPAC>  (1) 
pranlukast

>  <JCHEM_VEBER_RULE>  (1) 
0

>  <MOLECULAR_WEIGHT>  (1) 
481.512

>  <SMILES>  (1) 
O=C(NC1=C2OC(=CC(=O)C2=CC=C1)C1=NNN=N1)C1=CC=C(OCCCCC2=CC=CC=C2)C=C1

$$$$
