1245
     RDKit          2D

 56 55  0  0  0  0  0  0  0  0999 V2000
    2.3643   -0.2063    0.0000 N   0  0  0  0  0  0  0  0  0  0  0  0
   10.2230    0.2063    0.0000 N   0  0  0  0  0  0  0  0  0  0  0  0
    3.0788    0.2063    0.0000 C   0  0  0  0  0  0  0  0  0  0  0  0
    9.5085   -0.2063    0.0000 C   0  0  0  0  0  0  0  0  0  0  0  0
    3.7932   -0.2063    0.0000 C   0  0  0  0  0  0  0  0  0  0  0  0
    8.7941    0.2063    0.0000 C   0  0  0  0  0  0  0  0  0  0  0  0
    4.5076    0.2063    0.0000 C   0  0  0  0  0  0  0  0  0  0  0  0
    8.0797   -0.2063    0.0000 C   0  0  0  0  0  0  0  0  0  0  0  0
    5.2219   -0.2063    0.0000 C   0  0  0  0  0  0  0  0  0  0  0  0
    7.3652    0.2063    0.0000 C   0  0  0  0  0  0  0  0  0  0  0  0
    5.9365    0.2063    0.0000 C   0  0  0  0  0  0  0  0  0  0  0  0
    6.6509   -0.2063    0.0000 C   0  0  0  0  0  0  0  0  0  0  0  0
    2.7767   -0.9206    0.0000 C   0  0  0  0  0  0  0  0  0  0  0  0
    1.9518    0.5082    0.0000 C   0  0  0  0  0  0  0  0  0  0  0  0
    1.6498   -0.6187    0.0000 C   0  0  0  0  0  0  0  0  0  0  0  0
    9.8105    0.9206    0.0000 C   0  0  0  0  0  0  0  0  0  0  0  0
   10.6354   -0.5082    0.0000 C   0  0  0  0  0  0  0  0  0  0  0  0
   10.9373    0.6187    0.0000 C   0  0  0  0  0  0  0  0  0  0  0  0
    0.0000    0.0000    0.0000 H   0  0  0  0  0  0  0  0  0  0  0  0
    0.0000    0.0000    0.0000 H   0  0  0  0  0  0  0  0  0  0  0  0
    0.0000    0.0000    0.0000 H   0  0  0  0  0  0  0  0  0  0  0  0
    0.0000    0.0000    0.0000 H   0  0  0  0  0  0  0  0  0  0  0  0
    0.0000    0.0000    0.0000 H   0  0  0  0  0  0  0  0  0  0  0  0
    0.0000    0.0000    0.0000 H   0  0  0  0  0  0  0  0  0  0  0  0
    0.0000    0.0000    0.0000 H   0  0  0  0  0  0  0  0  0  0  0  0
    0.0000    0.0000    0.0000 H   0  0  0  0  0  0  0  0  0  0  0  0
    0.0000    0.0000    0.0000 H   0  0  0  0  0  0  0  0  0  0  0  0
    0.0000    0.0000    0.0000 H   0  0  0  0  0  0  0  0  0  0  0  0
    0.0000    0.0000    0.0000 H   0  0  0  0  0  0  0  0  0  0  0  0
    0.0000    0.0000    0.0000 H   0  0  0  0  0  0  0  0  0  0  0  0
    0.0000    0.0000    0.0000 H   0  0  0  0  0  0  0  0  0  0  0  0
    0.0000    0.0000    0.0000 H   0  0  0  0  0  0  0  0  0  0  0  0
    0.0000    0.0000    0.0000 H   0  0  0  0  0  0  0  0  0  0  0  0
    0.0000    0.0000    0.0000 H   0  0  0  0  0  0  0  0  0  0  0  0
    0.0000    0.0000    0.0000 H   0  0  0  0  0  0  0  0  0  0  0  0
    0.0000    0.0000    0.0000 H   0  0  0  0  0  0  0  0  0  0  0  0
    0.0000    0.0000    0.0000 H   0  0  0  0  0  0  0  0  0  0  0  0
    0.0000    0.0000    0.0000 H   0  0  0  0  0  0  0  0  0  0  0  0
    0.0000    0.0000    0.0000 H   0  0  0  0  0  0  0  0  0  0  0  0
    0.0000    0.0000    0.0000 H   0  0  0  0  0  0  0  0  0  0  0  0
    0.0000    0.0000    0.0000 H   0  0  0  0  0  0  0  0  0  0  0  0
    0.0000    0.0000    0.0000 H   0  0  0  0  0  0  0  0  0  0  0  0
    0.0000    0.0000    0.0000 H   0  0  0  0  0  0  0  0  0  0  0  0
    0.0000    0.0000    0.0000 H   0  0  0  0  0  0  0  0  0  0  0  0
    0.0000    0.0000    0.0000 H   0  0  0  0  0  0  0  0  0  0  0  0
    0.0000    0.0000    0.0000 H   0  0  0  0  0  0  0  0  0  0  0  0
    0.0000    0.0000    0.0000 H   0  0  0  0  0  0  0  0  0  0  0  0
    0.0000    0.0000    0.0000 H   0  0  0  0  0  0  0  0  0  0  0  0
    0.0000    0.0000    0.0000 H   0  0  0  0  0  0  0  0  0  0  0  0
    0.0000    0.0000    0.0000 H   0  0  0  0  0  0  0  0  0  0  0  0
    0.0000    0.0000    0.0000 H   0  0  0  0  0  0  0  0  0  0  0  0
    0.0000    0.0000    0.0000 H   0  0  0  0  0  0  0  0  0  0  0  0
    0.0000    0.0000    0.0000 H   0  0  0  0  0  0  0  0  0  0  0  0
    0.0000    0.0000    0.0000 H   0  0  0  0  0  0  0  0  0  0  0  0
    0.0000    0.0000    0.0000 H   0  0  0  0  0  0  0  0  0  0  0  0
    0.0000    0.0000    0.0000 H   0  0  0  0  0  0  0  0  0  0  0  0
  1  3  1  0
  1 13  1  0
  1 14  1  0
  1 15  1  0
  2  4  1  0
  2 16  1  0
  2 17  1  0
  2 18  1  0
  3  5  1  0
  4  6  1  0
  5  7  1  0
  6  8  1  0
  7  9  1  0
  8 10  1  0
  9 11  1  0
 10 12  1  0
 11 12  1  0
  3 19  1  0
  3 20  1  0
  4 21  1  0
  4 22  1  0
  5 23  1  0
  5 24  1  0
  6 25  1  0
  6 26  1  0
  7 27  1  0
  7 28  1  0
  8 29  1  0
  8 30  1  0
  9 31  1  0
  9 32  1  0
 10 33  1  0
 10 34  1  0
 11 35  1  0
 11 36  1  0
 12 37  1  0
 12 38  1  0
 13 39  1  0
 13 40  1  0
 13 41  1  0
 14 42  1  0
 14 43  1  0
 14 44  1  0
 15 45  1  0
 15 46  1  0
 15 47  1  0
 16 48  1  0
 16 49  1  0
 16 50  1  0
 17 51  1  0
 17 52  1  0
 17 53  1  0
 18 54  1  0
 18 55  1  0
 18 56  1  0
M  CHG  2   1   1   2   1
M  END
>  <ALOGPS_LOGP>  (1) 
-2.79

>  <ALOGPS_LOGS>  (1) 
-7.67

>  <ALOGPS_SOLUBILITY>  (1) 
7.04e-06 g/l

>  <DATABASE_ID>  (1) 
DB01245

>  <DATABASE_NAME>  (1) 
drugbank

>  <DRUGBANK_ID>  (1) 
DB01245

>  <DRUG_GROUPS>  (1) 
approved

>  <EXACT_MASS>  (1) 
258.303499226

>  <FORMULA>  (1) 
C16H38N2

>  <GENERIC_NAME>  (1) 
Decamethonium

>  <INCHI_IDENTIFIER>  (1) 
InChI=1S/C16H38N2/c1-17(2,3)15-13-11-9-7-8-10-12-14-16-18(4,5)6/h7-16H2,1-6H3/q+2

>  <INCHI_KEY>  (1) 
MTCUAOILFDZKCO-UHFFFAOYSA-N

>  <JCHEM_ACCEPTOR_COUNT>  (1) 
0

>  <JCHEM_AVERAGE_POLARIZABILITY>  (1) 
35.94104787229191

>  <JCHEM_BIOAVAILABILITY>  (1) 
1

>  <JCHEM_DONOR_COUNT>  (1) 
0

>  <JCHEM_FORMAL_CHARGE>  (1) 
2

>  <JCHEM_GHOSE_FILTER>  (1) 
0

>  <JCHEM_IUPAC>  (1) 
trimethyl[10-(trimethylazaniumyl)decyl]azanium

>  <JCHEM_LOGP>  (1) 
-4.87112484494349

>  <JCHEM_MDDR_LIKE_RULE>  (1) 
0

>  <JCHEM_NUMBER_OF_RINGS>  (1) 
0

>  <JCHEM_PHYSIOLOGICAL_CHARGE>  (1) 
2

>  <JCHEM_POLAR_SURFACE_AREA>  (1) 
0

>  <JCHEM_REFRACTIVITY>  (1) 
106.95039999999997

>  <JCHEM_ROTATABLE_BOND_COUNT>  (1) 
11

>  <JCHEM_RULE_OF_FIVE>  (1) 
1

>  <JCHEM_TRADITIONAL_IUPAC>  (1) 
decamethonium

>  <JCHEM_VEBER_RULE>  (1) 
0

>  <MOLECULAR_WEIGHT>  (1) 
258.4863

>  <SALTS>  (1) 
Decamethonium bromide

>  <SECONDARY_ACCESSION_NUMBERS>  (1) 
APRD00696

>  <SMILES>  (1) 
C[N+](C)(C)CCCCCCCCCC[N+](C)(C)C

$$$$
