1034
     RDKit          2D

 33 33  0  0  1  0  0  0  0  0999 V2000
    3.9345    0.9760    0.0000 O   0  0  0  0  0  0  0  0  0  0  0  0
    5.0615   -0.9760    0.0000 O   0  0  0  0  0  0  0  0  0  0  0  0
    2.8075   -0.9760    0.0000 O   0  0  0  0  0  0  0  0  0  0  0  0
    2.0930    0.2615    0.0000 N   0  0  0  0  0  0  0  0  0  0  0  0
    4.3470    0.2615    0.0000 C   0  0  0  0  0  0  0  0  0  0  0  0
    3.5220    0.2615    0.0000 C   0  0  0  0  0  0  0  0  0  0  0  0
    5.0615   -0.1510    0.0000 C   0  0  0  0  0  0  0  0  0  0  0  0
    5.7760    0.2615    0.0000 C   0  0  0  0  0  0  0  0  0  0  0  0
    2.8075   -0.1510    0.0000 C   0  0  0  0  0  0  0  0  0  0  0  0
    6.4905   -0.1510    0.0000 C   0  0  0  0  0  0  0  0  0  0  0  0
    7.2050    0.2615    0.0000 C   0  0  0  0  0  0  0  0  0  0  0  0
    7.9194   -0.1510    0.0000 C   0  0  0  0  0  0  0  0  0  0  0  0
    8.6339    0.2615    0.0000 C   0  0  0  0  0  0  0  0  0  0  0  0
    9.3484   -0.1510    0.0000 C   0  0  0  0  0  0  0  0  0  0  0  0
   10.0629    0.2615    0.0000 C   0  0  0  0  0  0  0  0  0  0  0  0
   10.7774   -0.1510    0.0000 C   0  0  0  0  0  0  0  0  0  0  0  0
    0.0000    0.0000    0.0000 H   0  0  0  0  0  0  0  0  0  0  0  0
    0.0000    0.0000    0.0000 H   0  0  0  0  0  0  0  0  0  0  0  0
    0.0000    0.0000    0.0000 H   0  0  0  0  0  0  0  0  0  0  0  0
    0.0000    0.0000    0.0000 H   0  0  0  0  0  0  0  0  0  0  0  0
    0.0000    0.0000    0.0000 H   0  0  0  0  0  0  0  0  0  0  0  0
    0.0000    0.0000    0.0000 H   0  0  0  0  0  0  0  0  0  0  0  0
    0.0000    0.0000    0.0000 H   0  0  0  0  0  0  0  0  0  0  0  0
    0.0000    0.0000    0.0000 H   0  0  0  0  0  0  0  0  0  0  0  0
    0.0000    0.0000    0.0000 H   0  0  0  0  0  0  0  0  0  0  0  0
    0.0000    0.0000    0.0000 H   0  0  0  0  0  0  0  0  0  0  0  0
    0.0000    0.0000    0.0000 H   0  0  0  0  0  0  0  0  0  0  0  0
    0.0000    0.0000    0.0000 H   0  0  0  0  0  0  0  0  0  0  0  0
    0.0000    0.0000    0.0000 H   0  0  0  0  0  0  0  0  0  0  0  0
    0.0000    0.0000    0.0000 H   0  0  0  0  0  0  0  0  0  0  0  0
    0.0000    0.0000    0.0000 H   0  0  0  0  0  0  0  0  0  0  0  0
    0.0000    0.0000    0.0000 H   0  0  0  0  0  0  0  0  0  0  0  0
    0.0000    0.0000    0.0000 H   0  0  0  0  0  0  0  0  0  0  0  0
  1  5  1  0
  1  6  1  0
  2  7  2  0
  3  9  2  0
  4  9  1  0
  5  6  1  0
  5  7  1  6
  6  9  1  6
  7  8  1  0
  8 10  1  0
 10 11  1  0
 11 12  2  3
 12 13  1  0
 13 14  1  0
 14 15  2  3
 15 16  1  0
  4 17  1  0
  4 18  1  0
  5 19  1  0
  6 20  1  0
  8 21  1  0
  8 22  1  0
 10 23  1  0
 10 24  1  0
 11 25  1  0
 12 26  1  0
 13 27  1  0
 13 28  1  0
 14 29  1  0
 15 30  1  0
 16 31  1  0
 16 32  1  0
 16 33  1  0
M  END
>  <ALOGPS_LOGP>  (1) 
1.38

>  <ALOGPS_LOGS>  (1) 
-2.14

>  <ALOGPS_SOLUBILITY>  (1) 
1.60e+00 g/l

>  <DATABASE_ID>  (1) 
DB01034

>  <DATABASE_NAME>  (1) 
drugbank

>  <DRUGBANK_ID>  (1) 
DB01034

>  <DRUG_GROUPS>  (1) 
approved

>  <EXACT_MASS>  (1) 
223.120843415

>  <FORMULA>  (1) 
C12H17NO3

>  <GENERIC_NAME>  (1) 
Cerulenin

>  <INCHI_IDENTIFIER>  (1) 
InChI=1S/C12H17NO3/c1-2-3-4-5-6-7-8-9(14)10-11(16-10)12(13)15/h2-3,5-6,10-11H,4,7-8H2,1H3,(H2,13,15)/t10-,11-/m1/s1

>  <INCHI_KEY>  (1) 
GVEZIHKRYBHEFX-GHMZBOCLSA-N

>  <JCHEM_ACCEPTOR_COUNT>  (1) 
3

>  <JCHEM_AVERAGE_POLARIZABILITY>  (1) 
23.901511054240988

>  <JCHEM_BIOAVAILABILITY>  (1) 
1

>  <JCHEM_DONOR_COUNT>  (1) 
1

>  <JCHEM_FORMAL_CHARGE>  (1) 
0

>  <JCHEM_GHOSE_FILTER>  (1) 
1

>  <JCHEM_IUPAC>  (1) 
(2R,3S)-3-(nona-4,7-dienoyl)oxirane-2-carboxamide

>  <JCHEM_LOGP>  (1) 
1.4996911163333335

>  <JCHEM_MDDR_LIKE_RULE>  (1) 
0

>  <JCHEM_NUMBER_OF_RINGS>  (1) 
1

>  <JCHEM_PHYSIOLOGICAL_CHARGE>  (1) 
0

>  <JCHEM_PKA>  (1) 
18.68536616192688

>  <JCHEM_PKA_STRONGEST_ACIDIC>  (1) 
14.15640801160168

>  <JCHEM_PKA_STRONGEST_BASIC>  (1) 
-4.324867253494774

>  <JCHEM_POLAR_SURFACE_AREA>  (1) 
72.69

>  <JCHEM_REFRACTIVITY>  (1) 
62.5427

>  <JCHEM_ROTATABLE_BOND_COUNT>  (1) 
7

>  <JCHEM_RULE_OF_FIVE>  (1) 
1

>  <JCHEM_TRADITIONAL_IUPAC>  (1) 
cerulenin

>  <JCHEM_VEBER_RULE>  (1) 
0

>  <MOLECULAR_WEIGHT>  (1) 
223.2683

>  <SECONDARY_ACCESSION_NUMBERS>  (1) 
APRD00703

>  <SMILES>  (1) 
CC=CCC=CCCC(=O)[C@H]1O[C@H]1C(N)=O

$$$$
