1298
     RDKit          2D

 34 35  0  0  0  0  0  0  0  0999 V2000
    3.7935    0.9818    0.0000 S   0  0  0  0  0  0  0  0  0  0  0  0
    4.2060    0.2673    0.0000 O   0  0  0  0  0  0  0  0  0  0  0  0
    3.3810    1.6962    0.0000 O   0  0  0  0  0  0  0  0  0  0  0  0
    1.6500   -1.9058    0.0000 O   0  0  0  0  0  0  0  0  0  0  0  0
    3.0791   -1.9058    0.0000 N   0  0  0  0  0  0  0  0  0  0  0  0
    3.0791    0.5693    0.0000 N   0  0  0  0  0  0  0  0  0  0  0  0
    2.3645   -0.6683    0.0000 N   0  0  0  0  0  0  0  0  0  0  0  0
    6.6515    2.6318    0.0000 N   0  0  0  0  0  0  0  0  0  0  0  0
    4.5080    1.3943    0.0000 C   0  0  0  0  0  0  0  0  0  0  0  0
    3.0791   -0.2558    0.0000 C   0  0  0  0  0  0  0  0  0  0  0  0
    3.0791   -2.7308    0.0000 C   0  0  0  0  0  0  0  0  0  0  0  0
    3.7935   -1.4933    0.0000 C   0  0  0  0  0  0  0  0  0  0  0  0
    3.7935   -0.6683    0.0000 C   0  0  0  0  0  0  0  0  0  0  0  0
    5.2224    0.9818    0.0000 C   0  0  0  0  0  0  0  0  0  0  0  0
    4.5080    2.2193    0.0000 C   0  0  0  0  0  0  0  0  0  0  0  0
    2.3645   -1.4933    0.0000 C   0  0  0  0  0  0  0  0  0  0  0  0
    5.9370    1.3943    0.0000 C   0  0  0  0  0  0  0  0  0  0  0  0
    5.2224    2.6318    0.0000 C   0  0  0  0  0  0  0  0  0  0  0  0
    5.9370    2.2193    0.0000 C   0  0  0  0  0  0  0  0  0  0  0  0
    3.7935   -3.1433    0.0000 C   0  0  0  0  0  0  0  0  0  0  0  0
    0.0000    0.0000    0.0000 H   0  0  0  0  0  0  0  0  0  0  0  0
    0.0000    0.0000    0.0000 H   0  0  0  0  0  0  0  0  0  0  0  0
    0.0000    0.0000    0.0000 H   0  0  0  0  0  0  0  0  0  0  0  0
    0.0000    0.0000    0.0000 H   0  0  0  0  0  0  0  0  0  0  0  0
    0.0000    0.0000    0.0000 H   0  0  0  0  0  0  0  0  0  0  0  0
    0.0000    0.0000    0.0000 H   0  0  0  0  0  0  0  0  0  0  0  0
    0.0000    0.0000    0.0000 H   0  0  0  0  0  0  0  0  0  0  0  0
    0.0000    0.0000    0.0000 H   0  0  0  0  0  0  0  0  0  0  0  0
    0.0000    0.0000    0.0000 H   0  0  0  0  0  0  0  0  0  0  0  0
    0.0000    0.0000    0.0000 H   0  0  0  0  0  0  0  0  0  0  0  0
    0.0000    0.0000    0.0000 H   0  0  0  0  0  0  0  0  0  0  0  0
    0.0000    0.0000    0.0000 H   0  0  0  0  0  0  0  0  0  0  0  0
    0.0000    0.0000    0.0000 H   0  0  0  0  0  0  0  0  0  0  0  0
    0.0000    0.0000    0.0000 H   0  0  0  0  0  0  0  0  0  0  0  0
  1  2  2  0
  1  3  2  0
  1  6  1  0
  1  9  1  0
  4 16  2  0
  5 11  1  0
  5 12  1  0
  5 16  1  0
  6 10  1  0
  7 10  2  0
  7 16  1  0
  8 19  1  0
  9 14  2  0
  9 15  1  0
 10 13  1  0
 11 20  1  0
 12 13  2  0
 14 17  1  0
 15 18  2  0
 17 19  2  0
 18 19  1  0
  6 21  1  0
  8 22  1  0
  8 23  1  0
 11 24  1  0
 11 25  1  0
 12 26  1  0
 13 27  1  0
 14 28  1  0
 15 29  1  0
 17 30  1  0
 18 31  1  0
 20 32  1  0
 20 33  1  0
 20 34  1  0
M  END
>  <ALOGPS_LOGP>  (1) 
0.51

>  <ALOGPS_LOGS>  (1) 
-2.80

>  <ALOGPS_SOLUBILITY>  (1) 
4.68e-01 g/l

>  <DATABASE_ID>  (1) 
DB01298

>  <DATABASE_NAME>  (1) 
drugbank

>  <DRUGBANK_ID>  (1) 
DB01298

>  <DRUG_GROUPS>  (1) 
approved

>  <EXACT_MASS>  (1) 
294.078661024

>  <FORMULA>  (1) 
C12H14N4O3S

>  <GENERIC_NAME>  (1) 
Sulfacytine

>  <INCHI_IDENTIFIER>  (1) 
InChI=1S/C12H14N4O3S/c1-2-16-8-7-11(14-12(16)17)15-20(18,19)10-5-3-9(13)4-6-10/h3-8H,2,13H2,1H3,(H,14,15,17)

>  <INCHI_KEY>  (1) 
SIBQAECNSSQUOD-UHFFFAOYSA-N

>  <JCHEM_ACCEPTOR_COUNT>  (1) 
5

>  <JCHEM_AVERAGE_POLARIZABILITY>  (1) 
29.427958370417702

>  <JCHEM_BIOAVAILABILITY>  (1) 
1

>  <JCHEM_DONOR_COUNT>  (1) 
2

>  <JCHEM_FORMAL_CHARGE>  (1) 
0

>  <JCHEM_GHOSE_FILTER>  (1) 
1

>  <JCHEM_IUPAC>  (1) 
4-amino-N-(1-ethyl-2-oxo-1,2-dihydropyrimidin-4-yl)benzene-1-sulfonamide

>  <JCHEM_LOGP>  (1) 
0.05499847633333288

>  <JCHEM_MDDR_LIKE_RULE>  (1) 
0

>  <JCHEM_NUMBER_OF_RINGS>  (1) 
2

>  <JCHEM_PHYSIOLOGICAL_CHARGE>  (1) 
0

>  <JCHEM_PKA_STRONGEST_ACIDIC>  (1) 
10.552587798907739

>  <JCHEM_PKA_STRONGEST_BASIC>  (1) 
2.1655696702755893

>  <JCHEM_POLAR_SURFACE_AREA>  (1) 
104.86

>  <JCHEM_REFRACTIVITY>  (1) 
75.488

>  <JCHEM_ROTATABLE_BOND_COUNT>  (1) 
3

>  <JCHEM_RULE_OF_FIVE>  (1) 
1

>  <JCHEM_TRADITIONAL_IUPAC>  (1) 
sulfacytine

>  <JCHEM_VEBER_RULE>  (1) 
0

>  <MOLECULAR_WEIGHT>  (1) 
294.33

>  <SMILES>  (1) 
CCN1C=CC(NS(=O)(=O)C2=CC=C(N)C=C2)=NC1=O

>  <SYNONYMS>  (1) 
Sulfacitina; Sulfacitine; Sulfacitinum

$$$$
