1359
     RDKit          2D

 50 51  0  0  1  0  0  0  0  0999 V2000
    5.9370   -0.2223    0.0000 O   0  0  0  0  0  0  0  0  0  0  0  0
    4.5080    0.6028    0.0000 O   0  0  0  0  0  0  0  0  0  0  0  0
    3.0791   -0.2223    0.0000 N   0  0  0  0  0  0  0  0  0  0  0  0
    7.3659    0.6028    0.0000 C   0  0  0  0  0  0  0  0  0  0  0  0
    8.0334    1.0877    0.0000 C   0  0  0  0  0  0  0  0  0  0  0  0
    6.6985    1.0877    0.0000 C   0  0  0  0  0  0  0  0  0  0  0  0
    7.7784    1.8723    0.0000 C   0  0  0  0  0  0  0  0  0  0  0  0
    6.9534    1.8723    0.0000 C   0  0  0  0  0  0  0  0  0  0  0  0
    7.3659   -0.2223    0.0000 C   0  0  0  0  0  0  0  0  0  0  0  0
    6.6515   -0.6348    0.0000 C   0  0  0  0  0  0  0  0  0  0  0  0
    8.0804   -0.6348    0.0000 C   0  0  0  0  0  0  0  0  0  0  0  0
    2.3645   -0.6348    0.0000 C   0  0  0  0  0  0  0  0  0  0  0  0
    4.5080   -0.2223    0.0000 C   0  0  0  0  0  0  0  0  0  0  0  0
    3.7935   -0.6348    0.0000 C   0  0  0  0  0  0  0  0  0  0  0  0
    5.2224   -0.6348    0.0000 C   0  0  0  0  0  0  0  0  0  0  0  0
    6.6515   -1.4598    0.0000 C   0  0  0  0  0  0  0  0  0  0  0  0
    8.0804   -1.4598    0.0000 C   0  0  0  0  0  0  0  0  0  0  0  0
    2.7770   -1.3492    0.0000 C   0  0  0  0  0  0  0  0  0  0  0  0
    1.9520    0.0797    0.0000 C   0  0  0  0  0  0  0  0  0  0  0  0
    1.6500   -1.0473    0.0000 C   0  0  0  0  0  0  0  0  0  0  0  0
    7.3659   -1.8723    0.0000 C   0  0  0  0  0  0  0  0  0  0  0  0
    0.0000    0.0000    0.0000 H   0  0  0  0  0  0  0  0  0  0  0  0
    0.0000    0.0000    0.0000 H   0  0  0  0  0  0  0  0  0  0  0  0
    0.0000    0.0000    0.0000 H   0  0  0  0  0  0  0  0  0  0  0  0
    0.0000    0.0000    0.0000 H   0  0  0  0  0  0  0  0  0  0  0  0
    0.0000    0.0000    0.0000 H   0  0  0  0  0  0  0  0  0  0  0  0
    0.0000    0.0000    0.0000 H   0  0  0  0  0  0  0  0  0  0  0  0
    0.0000    0.0000    0.0000 H   0  0  0  0  0  0  0  0  0  0  0  0
    0.0000    0.0000    0.0000 H   0  0  0  0  0  0  0  0  0  0  0  0
    0.0000    0.0000    0.0000 H   0  0  0  0  0  0  0  0  0  0  0  0
    0.0000    0.0000    0.0000 H   0  0  0  0  0  0  0  0  0  0  0  0
    0.0000    0.0000    0.0000 H   0  0  0  0  0  0  0  0  0  0  0  0
    0.0000    0.0000    0.0000 H   0  0  0  0  0  0  0  0  0  0  0  0
    0.0000    0.0000    0.0000 H   0  0  0  0  0  0  0  0  0  0  0  0
    0.0000    0.0000    0.0000 H   0  0  0  0  0  0  0  0  0  0  0  0
    0.0000    0.0000    0.0000 H   0  0  0  0  0  0  0  0  0  0  0  0
    0.0000    0.0000    0.0000 H   0  0  0  0  0  0  0  0  0  0  0  0
    0.0000    0.0000    0.0000 H   0  0  0  0  0  0  0  0  0  0  0  0
    0.0000    0.0000    0.0000 H   0  0  0  0  0  0  0  0  0  0  0  0
    0.0000    0.0000    0.0000 H   0  0  0  0  0  0  0  0  0  0  0  0
    0.0000    0.0000    0.0000 H   0  0  0  0  0  0  0  0  0  0  0  0
    0.0000    0.0000    0.0000 H   0  0  0  0  0  0  0  0  0  0  0  0
    0.0000    0.0000    0.0000 H   0  0  0  0  0  0  0  0  0  0  0  0
    0.0000    0.0000    0.0000 H   0  0  0  0  0  0  0  0  0  0  0  0
    0.0000    0.0000    0.0000 H   0  0  0  0  0  0  0  0  0  0  0  0
    0.0000    0.0000    0.0000 H   0  0  0  0  0  0  0  0  0  0  0  0
    0.0000    0.0000    0.0000 H   0  0  0  0  0  0  0  0  0  0  0  0
    0.0000    0.0000    0.0000 H   0  0  0  0  0  0  0  0  0  0  0  0
    0.0000    0.0000    0.0000 H   0  0  0  0  0  0  0  0  0  0  0  0
    0.0000    0.0000    0.0000 H   0  0  0  0  0  0  0  0  0  0  0  0
  1 10  1  0
  1 15  1  0
 13  2  1  6
  3 12  1  0
  3 14  1  0
  4  5  1  0
  4  6  1  0
  4  9  1  0
  5  7  1  0
  6  8  1  0
  7  8  1  0
  9 10  2  0
  9 11  1  0
 10 16  1  0
 11 17  2  0
 12 18  1  0
 12 19  1  0
 12 20  1  0
 13 14  1  0
 13 15  1  0
 16 21  2  0
 17 21  1  0
  2 22  1  0
  3 23  1  0
  4 24  1  0
  5 25  1  0
  5 26  1  0
  6 27  1  0
  6 28  1  0
  7 29  1  0
  7 30  1  0
  8 31  1  0
  8 32  1  0
 11 33  1  0
 13 34  1  0
 14 35  1  0
 14 36  1  0
 15 37  1  0
 15 38  1  0
 16 39  1  0
 17 40  1  0
 18 41  1  0
 18 42  1  0
 18 43  1  0
 19 44  1  0
 19 45  1  0
 19 46  1  0
 20 47  1  0
 20 48  1  0
 20 49  1  0
 21 50  1  0
M  END
>  <ALOGPS_LOGP>  (1) 
3.84

>  <ALOGPS_LOGS>  (1) 
-4.14

>  <ALOGPS_SOLUBILITY>  (1) 
2.12e-02 g/l

>  <DATABASE_ID>  (1) 
DB01359

>  <DATABASE_NAME>  (1) 
drugbank

>  <DRUGBANK_ID>  (1) 
DB01359

>  <DRUG_GROUPS>  (1) 
approved; investigational

>  <EXACT_MASS>  (1) 
291.219829177

>  <FORMULA>  (1) 
C18H29NO2

>  <GENERIC_NAME>  (1) 
Penbutolol

>  <INCHI_IDENTIFIER>  (1) 
InChI=1S/C18H29NO2/c1-18(2,3)19-12-15(20)13-21-17-11-7-6-10-16(17)14-8-4-5-9-14/h6-7,10-11,14-15,19-20H,4-5,8-9,12-13H2,1-3H3/t15-/m0/s1

>  <INCHI_KEY>  (1) 
KQXKVJAGOJTNJS-HNNXBMFYSA-N

>  <INTERNATIONAL_BRANDS>  (1) 
Betapressin; Lobeta

>  <JCHEM_ACCEPTOR_COUNT>  (1) 
3

>  <JCHEM_AVERAGE_POLARIZABILITY>  (1) 
34.57855846758339

>  <JCHEM_BIOAVAILABILITY>  (1) 
1

>  <JCHEM_DONOR_COUNT>  (1) 
2

>  <JCHEM_FORMAL_CHARGE>  (1) 
0

>  <JCHEM_GHOSE_FILTER>  (1) 
1

>  <JCHEM_IUPAC>  (1) 
(2S)-1-(tert-butylamino)-3-(2-cyclopentylphenoxy)propan-2-ol

>  <JCHEM_LOGP>  (1) 
3.545216419

>  <JCHEM_MDDR_LIKE_RULE>  (1) 
0

>  <JCHEM_NUMBER_OF_RINGS>  (1) 
2

>  <JCHEM_PHYSIOLOGICAL_CHARGE>  (1) 
1

>  <JCHEM_PKA_STRONGEST_ACIDIC>  (1) 
14.087581172508457

>  <JCHEM_PKA_STRONGEST_BASIC>  (1) 
9.75952324837285

>  <JCHEM_POLAR_SURFACE_AREA>  (1) 
41.49

>  <JCHEM_REFRACTIVITY>  (1) 
86.60430000000001

>  <JCHEM_ROTATABLE_BOND_COUNT>  (1) 
7

>  <JCHEM_RULE_OF_FIVE>  (1) 
1

>  <JCHEM_TRADITIONAL_IUPAC>  (1) 
(2S)-1-(tert-butylamino)-3-(2-cyclopentylphenoxy)propan-2-ol

>  <JCHEM_VEBER_RULE>  (1) 
0

>  <MOLECULAR_WEIGHT>  (1) 
291.4284

>  <SALTS>  (1) 
Penbutolol sulfate

>  <SMILES>  (1) 
CC(C)(C)NC[C@H](O)COC1=CC=CC=C1C1CCCC1

>  <SYNONYMS>  (1) 
(2S)-1-(tert-butylamino)-3-(2-cyclopentylphenoxy)propan-2-ol; 1-(tert-Butylamino)-3-(o-cyclopentylphenoxy)propan-2-ol; 2-Propanol, 1-(2-cyclopentylphenoxy)-3-((1,1-dimethylethyl)amino)-, (S)-; HOE 893; HOE 893D; Penbutololum

$$$$
