1072
     RDKit          2D

103105  0  0  1  0  0  0  0  0999 V2000
    5.2224   -1.2375    0.0000 O   0  0  0  0  0  0  0  0  0  0  0  0
    4.5080   -1.6500    0.0000 O   0  0  0  0  0  0  0  0  0  0  0  0
    8.0804   -1.2375    0.0000 O   0  0  0  0  0  0  0  0  0  0  0  0
    2.3645   -3.7126    0.0000 O   0  0  0  0  0  0  0  0  0  0  0  0
    5.9370   -4.1251    0.0000 O   0  0  0  0  0  0  0  0  0  0  0  0
    1.6500   -2.4751    0.0000 O   0  0  0  0  0  0  0  0  0  0  0  0
    7.3659   -4.1251    0.0000 O   0  0  0  0  0  0  0  0  0  0  0  0
    3.7935   -0.4125    0.0000 N   0  0  0  0  0  0  0  0  0  0  0  0
    6.6515   -0.4125    0.0000 N   0  0  0  0  0  0  0  0  0  0  0  0
    3.0791   -2.4751    0.0000 N   0  0  0  0  0  0  0  0  0  0  0  0
    6.6515   -1.2375    0.0000 N   0  0  0  0  0  0  0  0  0  0  0  0
    6.6515   -2.8876    0.0000 N   0  0  0  0  0  0  0  0  0  0  0  0
    8.0804    3.7126    0.0000 N   0  0  0  0  0  0  0  0  0  0  0  0
    2.3645   -1.2375    0.0000 C   0  0  0  0  0  0  0  0  0  0  0  0
    4.5080    0.0000    0.0000 C   0  0  0  0  0  0  0  0  0  0  0  0
    3.0791   -1.6500    0.0000 C   0  0  0  0  0  0  0  0  0  0  0  0
    5.2224   -0.4125    0.0000 C   0  0  0  0  0  0  0  0  0  0  0  0
    8.0804   -2.8876    0.0000 C   0  0  0  0  0  0  0  0  0  0  0  0
    5.9370    0.0000    0.0000 C   0  0  0  0  0  0  0  0  0  0  0  0
    7.3659   -2.4751    0.0000 C   0  0  0  0  0  0  0  0  0  0  0  0
    4.5080    0.8250    0.0000 C   0  0  0  0  0  0  0  0  0  0  0  0
    3.7935   -1.2375    0.0000 C   0  0  0  0  0  0  0  0  0  0  0  0
    1.6500   -0.8250    0.0000 C   0  0  0  0  0  0  0  0  0  0  0  0
    1.9520   -1.9520    0.0000 C   0  0  0  0  0  0  0  0  0  0  0  0
    2.7770   -0.5231    0.0000 C   0  0  0  0  0  0  0  0  0  0  0  0
    7.3659   -1.6500    0.0000 C   0  0  0  0  0  0  0  0  0  0  0  0
    8.4929   -2.1731    0.0000 C   0  0  0  0  0  0  0  0  0  0  0  0
    7.6679   -3.6020    0.0000 C   0  0  0  0  0  0  0  0  0  0  0  0
    8.7949   -3.3001    0.0000 C   0  0  0  0  0  0  0  0  0  0  0  0
    7.3659    0.0000    0.0000 C   0  0  0  0  0  0  0  0  0  0  0  0
    3.7935    1.2375    0.0000 C   0  0  0  0  0  0  0  0  0  0  0  0
    7.3659    0.8250    0.0000 C   0  0  0  0  0  0  0  0  0  0  0  0
    2.3645   -2.8876    0.0000 C   0  0  0  0  0  0  0  0  0  0  0  0
    3.0791    0.8250    0.0000 C   0  0  0  0  0  0  0  0  0  0  0  0
    3.7935    2.0625    0.0000 C   0  0  0  0  0  0  0  0  0  0  0  0
    6.6515   -3.7126    0.0000 C   0  0  0  0  0  0  0  0  0  0  0  0
    6.6515    1.2375    0.0000 C   0  0  0  0  0  0  0  0  0  0  0  0
    8.0804    1.2375    0.0000 C   0  0  0  0  0  0  0  0  0  0  0  0
    2.3645    1.2375    0.0000 C   0  0  0  0  0  0  0  0  0  0  0  0
    3.0791    2.4751    0.0000 C   0  0  0  0  0  0  0  0  0  0  0  0
    2.3645    2.0625    0.0000 C   0  0  0  0  0  0  0  0  0  0  0  0
    6.6515    2.0625    0.0000 C   0  0  0  0  0  0  0  0  0  0  0  0
    8.0804    2.0625    0.0000 C   0  0  0  0  0  0  0  0  0  0  0  0
    7.3659    2.4751    0.0000 C   0  0  0  0  0  0  0  0  0  0  0  0
    1.6500   -4.1251    0.0000 C   0  0  0  0  0  0  0  0  0  0  0  0
    7.3659    3.3001    0.0000 C   0  0  0  0  0  0  0  0  0  0  0  0
    5.9370   -4.9501    0.0000 C   0  0  0  0  0  0  0  0  0  0  0  0
    6.6515    3.7126    0.0000 C   0  0  0  0  0  0  0  0  0  0  0  0
    6.6515    4.5376    0.0000 C   0  0  0  0  0  0  0  0  0  0  0  0
    8.0804    4.5376    0.0000 C   0  0  0  0  0  0  0  0  0  0  0  0
    7.3659    4.9501    0.0000 C   0  0  0  0  0  0  0  0  0  0  0  0
    0.0000    0.0000    0.0000 H   0  0  0  0  0  0  0  0  0  0  0  0
    0.0000    0.0000    0.0000 H   0  0  0  0  0  0  0  0  0  0  0  0
    0.0000    0.0000    0.0000 H   0  0  0  0  0  0  0  0  0  0  0  0
    0.0000    0.0000    0.0000 H   0  0  0  0  0  0  0  0  0  0  0  0
    0.0000    0.0000    0.0000 H   0  0  0  0  0  0  0  0  0  0  0  0
    0.0000    0.0000    0.0000 H   0  0  0  0  0  0  0  0  0  0  0  0
    0.0000    0.0000    0.0000 H   0  0  0  0  0  0  0  0  0  0  0  0
    0.0000    0.0000    0.0000 H   0  0  0  0  0  0  0  0  0  0  0  0
    0.0000    0.0000    0.0000 H   0  0  0  0  0  0  0  0  0  0  0  0
    0.0000    0.0000    0.0000 H   0  0  0  0  0  0  0  0  0  0  0  0
    0.0000    0.0000    0.0000 H   0  0  0  0  0  0  0  0  0  0  0  0
    0.0000    0.0000    0.0000 H   0  0  0  0  0  0  0  0  0  0  0  0
    0.0000    0.0000    0.0000 H   0  0  0  0  0  0  0  0  0  0  0  0
    0.0000    0.0000    0.0000 H   0  0  0  0  0  0  0  0  0  0  0  0
    0.0000    0.0000    0.0000 H   0  0  0  0  0  0  0  0  0  0  0  0
    0.0000    0.0000    0.0000 H   0  0  0  0  0  0  0  0  0  0  0  0
    0.0000    0.0000    0.0000 H   0  0  0  0  0  0  0  0  0  0  0  0
    0.0000    0.0000    0.0000 H   0  0  0  0  0  0  0  0  0  0  0  0
    0.0000    0.0000    0.0000 H   0  0  0  0  0  0  0  0  0  0  0  0
    0.0000    0.0000    0.0000 H   0  0  0  0  0  0  0  0  0  0  0  0
    0.0000    0.0000    0.0000 H   0  0  0  0  0  0  0  0  0  0  0  0
    0.0000    0.0000    0.0000 H   0  0  0  0  0  0  0  0  0  0  0  0
    0.0000    0.0000    0.0000 H   0  0  0  0  0  0  0  0  0  0  0  0
    0.0000    0.0000    0.0000 H   0  0  0  0  0  0  0  0  0  0  0  0
    0.0000    0.0000    0.0000 H   0  0  0  0  0  0  0  0  0  0  0  0
    0.0000    0.0000    0.0000 H   0  0  0  0  0  0  0  0  0  0  0  0
    0.0000    0.0000    0.0000 H   0  0  0  0  0  0  0  0  0  0  0  0
    0.0000    0.0000    0.0000 H   0  0  0  0  0  0  0  0  0  0  0  0
    0.0000    0.0000    0.0000 H   0  0  0  0  0  0  0  0  0  0  0  0
    0.0000    0.0000    0.0000 H   0  0  0  0  0  0  0  0  0  0  0  0
    0.0000    0.0000    0.0000 H   0  0  0  0  0  0  0  0  0  0  0  0
    0.0000    0.0000    0.0000 H   0  0  0  0  0  0  0  0  0  0  0  0
    0.0000    0.0000    0.0000 H   0  0  0  0  0  0  0  0  0  0  0  0
    0.0000    0.0000    0.0000 H   0  0  0  0  0  0  0  0  0  0  0  0
    0.0000    0.0000    0.0000 H   0  0  0  0  0  0  0  0  0  0  0  0
    0.0000    0.0000    0.0000 H   0  0  0  0  0  0  0  0  0  0  0  0
    0.0000    0.0000    0.0000 H   0  0  0  0  0  0  0  0  0  0  0  0
    0.0000    0.0000    0.0000 H   0  0  0  0  0  0  0  0  0  0  0  0
    0.0000    0.0000    0.0000 H   0  0  0  0  0  0  0  0  0  0  0  0
    0.0000    0.0000    0.0000 H   0  0  0  0  0  0  0  0  0  0  0  0
    0.0000    0.0000    0.0000 H   0  0  0  0  0  0  0  0  0  0  0  0
    0.0000    0.0000    0.0000 H   0  0  0  0  0  0  0  0  0  0  0  0
    0.0000    0.0000    0.0000 H   0  0  0  0  0  0  0  0  0  0  0  0
    0.0000    0.0000    0.0000 H   0  0  0  0  0  0  0  0  0  0  0  0
    0.0000    0.0000    0.0000 H   0  0  0  0  0  0  0  0  0  0  0  0
    0.0000    0.0000    0.0000 H   0  0  0  0  0  0  0  0  0  0  0  0
    0.0000    0.0000    0.0000 H   0  0  0  0  0  0  0  0  0  0  0  0
    0.0000    0.0000    0.0000 H   0  0  0  0  0  0  0  0  0  0  0  0
    0.0000    0.0000    0.0000 H   0  0  0  0  0  0  0  0  0  0  0  0
    0.0000    0.0000    0.0000 H   0  0  0  0  0  0  0  0  0  0  0  0
    0.0000    0.0000    0.0000 H   0  0  0  0  0  0  0  0  0  0  0  0
    0.0000    0.0000    0.0000 H   0  0  0  0  0  0  0  0  0  0  0  0
 17  1  1  6
  2 22  2  0
  3 26  2  0
  4 33  1  0
  4 45  1  0
  5 36  1  0
  5 47  1  0
  6 33  2  0
  7 36  2  0
 15  8  1  1
  8 22  1  0
  9 11  1  0
  9 19  1  0
  9 30  1  0
 16 10  1  1
 10 33  1  0
 11 26  1  0
 20 12  1  6
 12 36  1  0
 13 46  2  0
 13 50  1  0
 14 16  1  0
 14 23  1  0
 14 24  1  0
 14 25  1  0
 15 17  1  0
 15 21  1  0
 16 22  1  0
 17 19  1  0
 18 20  1  0
 18 27  1  0
 18 28  1  0
 18 29  1  0
 20 26  1  0
 21 31  1  0
 30 32  1  0
 31 34  2  0
 31 35  1  0
 32 37  2  0
 32 38  1  0
 34 39  1  0
 35 40  2  0
 37 42  1  0
 38 43  2  0
 39 41  2  0
 40 41  1  0
 42 44  2  0
 43 44  1  0
 44 46  1  0
 46 48  1  0
 48 49  2  0
 49 51  1  0
 50 51  2  0
  1 52  1  0
  8 53  1  0
 10 54  1  0
 11 55  1  0
 12 56  1  0
 15 57  1  0
 16 58  1  0
 17 59  1  0
 19 60  1  0
 19 61  1  0
 20 62  1  0
 21 63  1  0
 21 64  1  0
 23 65  1  0
 23 66  1  0
 23 67  1  0
 24 68  1  0
 24 69  1  0
 24 70  1  0
 25 71  1  0
 25 72  1  0
 25 73  1  0
 27 74  1  0
 27 75  1  0
 27 76  1  0
 28 77  1  0
 28 78  1  0
 28 79  1  0
 29 80  1  0
 29 81  1  0
 29 82  1  0
 30 83  1  0
 30 84  1  0
 34 85  1  0
 35 86  1  0
 37 87  1  0
 38 88  1  0
 39 89  1  0
 40 90  1  0
 41 91  1  0
 42 92  1  0
 43 93  1  0
 45 94  1  0
 45 95  1  0
 45 96  1  0
 47 97  1  0
 47 98  1  0
 47 99  1  0
 48100  1  0
 49101  1  0
 50102  1  0
 51103  1  0
M  END
>  <ALOGPS_LOGP>  (1) 
4.08

>  <ALOGPS_LOGS>  (1) 
-5.33

>  <ALOGPS_SOLUBILITY>  (1) 
3.27e-03 g/l

>  <DATABASE_ID>  (1) 
DB01072

>  <DATABASE_NAME>  (1) 
drugbank

>  <DRUGBANK_ID>  (1) 
DB01072

>  <DRUG_GROUPS>  (1) 
approved; investigational

>  <EXACT_MASS>  (1) 
704.389748048

>  <FORMULA>  (1) 
C38H52N6O7

>  <GENERIC_NAME>  (1) 
Atazanavir

>  <INCHI_IDENTIFIER>  (1) 
InChI=1S/C38H52N6O7/c1-37(2,3)31(41-35(48)50-7)33(46)40-29(22-25-14-10-9-11-15-25)30(45)24-44(43-34(47)32(38(4,5)6)42-36(49)51-8)23-26-17-19-27(20-18-26)28-16-12-13-21-39-28/h9-21,29-32,45H,22-24H2,1-8H3,(H,40,46)(H,41,48)(H,42,49)(H,43,47)/t29-,30-,31+,32+/m0/s1

>  <INCHI_KEY>  (1) 
AXRYRYVKAWYZBR-GASGPIRDSA-N

>  <JCHEM_ACCEPTOR_COUNT>  (1) 
7

>  <JCHEM_AVERAGE_POLARIZABILITY>  (1) 
76.82519777563505

>  <JCHEM_BIOAVAILABILITY>  (1) 
0

>  <JCHEM_DONOR_COUNT>  (1) 
5

>  <JCHEM_FORMAL_CHARGE>  (1) 
0

>  <JCHEM_GHOSE_FILTER>  (1) 
0

>  <JCHEM_IUPAC>  (1) 
methyl N-[(1S)-1-{[(2S,3S)-3-hydroxy-4-[(2S)-2-[(methoxycarbonyl)amino]-3,3-dimethyl-N'-{[4-(pyridin-2-yl)phenyl]methyl}butanehydrazido]-1-phenylbutan-2-yl]carbamoyl}-2,2-dimethylpropyl]carbamate

>  <JCHEM_LOGP>  (1) 
4.539848171666664

>  <JCHEM_MDDR_LIKE_RULE>  (1) 
1

>  <JCHEM_NUMBER_OF_RINGS>  (1) 
3

>  <JCHEM_PHYSIOLOGICAL_CHARGE>  (1) 
0

>  <JCHEM_PKA>  (1) 
13.07487226997997

>  <JCHEM_PKA_STRONGEST_ACIDIC>  (1) 
11.91942238614578

>  <JCHEM_PKA_STRONGEST_BASIC>  (1) 
4.424559730771484

>  <JCHEM_POLAR_SURFACE_AREA>  (1) 
171.21999999999997

>  <JCHEM_REFRACTIVITY>  (1) 
191.8024999999999

>  <JCHEM_ROTATABLE_BOND_COUNT>  (1) 
18

>  <JCHEM_RULE_OF_FIVE>  (1) 
0

>  <JCHEM_TRADITIONAL_IUPAC>  (1) 
atazanavir

>  <JCHEM_VEBER_RULE>  (1) 
0

>  <MOLECULAR_WEIGHT>  (1) 
704.8555

>  <PRODUCTS>  (1) 
Evotaz; Mylan-atazanavir; Reyataz; Teva-atazanavir

>  <SALTS>  (1) 
Atazanavir sulfate

>  <SECONDARY_ACCESSION_NUMBERS>  (1) 
APRD00804

>  <SMILES>  (1) 
COC(=O)N[C@H](C(=O)N[C@@H](CC1=CC=CC=C1)[C@@H](O)CN(CC1=CC=C(C=C1)C1=CC=CC=N1)NC(=O)[C@@H](NC(=O)OC)C(C)(C)C)C(C)(C)C

>  <SYNONYMS>  (1) 
ATZ

$$$$
