1071
     RDKit          2D

 45 49  0  0  1  0  0  0  0  0999 V2000
    3.6958   -2.9819    0.0000 S   0  0  0  0  0  0  0  0  0  0  0  0
    5.7480    1.0364    0.0000 N   0  0  0  0  0  0  0  0  0  0  0  0
    3.6958   -1.3978    0.0000 N   0  0  0  0  0  0  0  0  0  0  0  0
    4.9829    1.2414    0.0000 C   0  0  0  0  0  0  0  0  0  0  0  0
    4.3819   -0.2097    0.0000 C   0  0  0  0  0  0  0  0  0  0  0  0
    5.1469   -0.4147    0.0000 C   0  0  0  0  0  0  0  0  0  0  0  0
    4.1908    2.6133    0.0000 C   0  0  0  0  0  0  0  0  0  0  0  0
    6.4201    2.0159    0.0000 C   0  0  0  0  0  0  0  0  0  0  0  0
    4.8767    3.0093    0.0000 C   0  0  0  0  0  0  0  0  0  0  0  0
    6.8162    1.3300    0.0000 C   0  0  0  0  0  0  0  0  0  0  0  0
    3.6958   -0.6057    0.0000 C   0  0  0  0  0  0  0  0  0  0  0  0
    4.3819   -1.7938    0.0000 C   0  0  0  0  0  0  0  0  0  0  0  0
    3.0099   -1.7938    0.0000 C   0  0  0  0  0  0  0  0  0  0  0  0
    4.3819   -2.5859    0.0000 C   0  0  0  0  0  0  0  0  0  0  0  0
    3.0099   -2.5859    0.0000 C   0  0  0  0  0  0  0  0  0  0  0  0
    5.0899   -1.3703    0.0000 C   0  0  0  0  0  0  0  0  0  0  0  0
    2.3019   -1.3703    0.0000 C   0  0  0  0  0  0  0  0  0  0  0  0
    5.0899   -3.0093    0.0000 C   0  0  0  0  0  0  0  0  0  0  0  0
    2.3019   -3.0093    0.0000 C   0  0  0  0  0  0  0  0  0  0  0  0
    5.8076   -1.7773    0.0000 C   0  0  0  0  0  0  0  0  0  0  0  0
    1.5842   -1.7773    0.0000 C   0  0  0  0  0  0  0  0  0  0  0  0
    5.8076   -2.6024    0.0000 C   0  0  0  0  0  0  0  0  0  0  0  0
    1.5842   -2.6024    0.0000 C   0  0  0  0  0  0  0  0  0  0  0  0
    0.0000    0.0000    0.0000 H   0  0  0  0  0  0  0  0  0  0  0  0
    0.0000    0.0000    0.0000 H   0  0  0  0  0  0  0  0  0  0  0  0
    0.0000    0.0000    0.0000 H   0  0  0  0  0  0  0  0  0  0  0  0
    0.0000    0.0000    0.0000 H   0  0  0  0  0  0  0  0  0  0  0  0
    0.0000    0.0000    0.0000 H   0  0  0  0  0  0  0  0  0  0  0  0
    0.0000    0.0000    0.0000 H   0  0  0  0  0  0  0  0  0  0  0  0
    0.0000    0.0000    0.0000 H   0  0  0  0  0  0  0  0  0  0  0  0
    0.0000    0.0000    0.0000 H   0  0  0  0  0  0  0  0  0  0  0  0
    0.0000    0.0000    0.0000 H   0  0  0  0  0  0  0  0  0  0  0  0
    0.0000    0.0000    0.0000 H   0  0  0  0  0  0  0  0  0  0  0  0
    0.0000    0.0000    0.0000 H   0  0  0  0  0  0  0  0  0  0  0  0
    0.0000    0.0000    0.0000 H   0  0  0  0  0  0  0  0  0  0  0  0
    0.0000    0.0000    0.0000 H   0  0  0  0  0  0  0  0  0  0  0  0
    0.0000    0.0000    0.0000 H   0  0  0  0  0  0  0  0  0  0  0  0
    0.0000    0.0000    0.0000 H   0  0  0  0  0  0  0  0  0  0  0  0
    0.0000    0.0000    0.0000 H   0  0  0  0  0  0  0  0  0  0  0  0
    0.0000    0.0000    0.0000 H   0  0  0  0  0  0  0  0  0  0  0  0
    0.0000    0.0000    0.0000 H   0  0  0  0  0  0  0  0  0  0  0  0
    0.0000    0.0000    0.0000 H   0  0  0  0  0  0  0  0  0  0  0  0
    0.0000    0.0000    0.0000 H   0  0  0  0  0  0  0  0  0  0  0  0
    0.0000    0.0000    0.0000 H   0  0  0  0  0  0  0  0  0  0  0  0
    0.0000    0.0000    0.0000 H   0  0  0  0  0  0  0  0  0  0  0  0
  1 14  1  0
  1 15  1  0
  2  6  1  0
  2  9  1  0
  2 10  1  0
  3 11  1  0
  3 12  1  0
  3 13  1  0
  4  5  1  0
  4  7  1  0
  4  8  1  0
  5  6  1  0
  5 11  1  0
  7  9  1  0
  8 10  1  0
 12 14  2  0
 12 16  1  0
 13 15  2  0
 13 17  1  0
 14 18  1  0
 15 19  1  0
 16 20  2  0
 17 21  2  0
 18 22  2  0
 19 23  2  0
 20 22  1  0
 21 23  1  0
  4 24  1  0
  5 25  1  0
  6 26  1  0
  6 27  1  0
  7 28  1  0
  7 29  1  0
  8 30  1  0
  8 31  1  0
  9 32  1  0
  9 33  1  0
 10 34  1  0
 10 35  1  0
 11 36  1  0
 11 37  1  0
 16 38  1  0
 17 39  1  0
 18 40  1  0
 19 41  1  0
 20 42  1  0
 21 43  1  0
 22 44  1  0
 23 45  1  0
M  END
>  <ALOGPS_LOGP>  (1) 
5.38

>  <ALOGPS_LOGS>  (1) 
-4.91

>  <ALOGPS_SOLUBILITY>  (1) 
4.01e-03 g/l

>  <DATABASE_ID>  (1) 
DB01071

>  <DATABASE_NAME>  (1) 
drugbank

>  <DRUGBANK_ID>  (1) 
DB01071

>  <DRUG_GROUPS>  (1) 
approved

>  <EXACT_MASS>  (1) 
322.150369404

>  <FORMULA>  (1) 
C20H22N2S

>  <GENERIC_NAME>  (1) 
Mequitazine

>  <INCHI_IDENTIFIER>  (1) 
InChI=1S/C20H22N2S/c1-3-7-19-17(5-1)22(18-6-2-4-8-20(18)23-19)14-16-13-21-11-9-15(16)10-12-21/h1-8,15-16H,9-14H2

>  <INCHI_KEY>  (1) 
HOKDBMAJZXIPGC-UHFFFAOYSA-N

>  <INTERNATIONAL_BRANDS>  (1) 
Kitazemin; Metaplexan; Mircol; Primalan; Zesulan

>  <JCHEM_ACCEPTOR_COUNT>  (1) 
2

>  <JCHEM_AVERAGE_POLARIZABILITY>  (1) 
36.25360130692894

>  <JCHEM_BIOAVAILABILITY>  (1) 
1

>  <JCHEM_DONOR_COUNT>  (1) 
0

>  <JCHEM_FORMAL_CHARGE>  (1) 
0

>  <JCHEM_GHOSE_FILTER>  (1) 
1

>  <JCHEM_IUPAC>  (1) 
10-{1-azabicyclo[2.2.2]octan-3-ylmethyl}-10H-phenothiazine

>  <JCHEM_LOGP>  (1) 
4.194801120666666

>  <JCHEM_MDDR_LIKE_RULE>  (1) 
0

>  <JCHEM_NUMBER_OF_RINGS>  (1) 
5

>  <JCHEM_PHYSIOLOGICAL_CHARGE>  (1) 
1

>  <JCHEM_PKA_STRONGEST_BASIC>  (1) 
8.60905359210875

>  <JCHEM_POLAR_SURFACE_AREA>  (1) 
6.48

>  <JCHEM_REFRACTIVITY>  (1) 
99.05430000000004

>  <JCHEM_ROTATABLE_BOND_COUNT>  (1) 
2

>  <JCHEM_RULE_OF_FIVE>  (1) 
1

>  <JCHEM_TRADITIONAL_IUPAC>  (1) 
mequitazine

>  <JCHEM_VEBER_RULE>  (1) 
1

>  <MOLECULAR_WEIGHT>  (1) 
322.467

>  <SECONDARY_ACCESSION_NUMBERS>  (1) 
APRD00386

>  <SMILES>  (1) 
C(C1CN2CCC1CC2)N1C2=CC=CC=C2SC2=CC=CC=C12

>  <SYNONYMS>  (1) 
Mequitazina; Mequitazinum

$$$$
