
     RDKit          2D

 50 53  0  0  0  0  0  0  0  0999 V2000
   -1.4036   -3.9359    0.0000 C   0  0  0  0  0  0  0  0  0  0  0  0
   -2.1255   -5.1620    0.0000 C   0  0  0  0  0  0  0  0  0  0  0  0
   -0.6989   -4.3370    0.0000 C   0  0  0  0  0  0  0  0  0  0  0  0
   -2.1255   -4.3370    0.0000 C   0  0  0  0  0  0  0  0  0  0  0  0
    4.2969   -3.8901    0.0000 C   0  0  0  0  0  0  0  0  0  0  0  0
    5.0073   -5.1219    0.0000 C   0  0  0  0  0  0  0  0  0  0  0  0
   -1.4036   -5.5745    0.0000 O   0  0  0  0  0  0  0  0  0  0  0  0
   -0.6989   -5.1620    0.0000 C   0  0  0  0  0  0  0  0  0  0  0  0
    5.0073   -4.3026    0.0000 C   0  0  0  0  0  0  0  0  0  0  0  0
    3.5922   -4.3026    0.0000 C   0  0  0  0  0  0  0  0  0  0  0  0
    3.5980   -5.1276    0.0000 C   0  0  0  0  0  0  0  0  0  0  0  0
   -2.8302   -5.5745    0.0000 C   0  0  0  0  0  0  0  0  0  0  0  0
    5.7292   -5.5344    0.0000 C   0  0  0  0  0  0  0  0  0  0  0  0
    4.3026   -5.5344    0.0000 O   0  0  0  0  0  0  0  0  0  0  0  0
    0.0172   -3.9245    0.0000 C   0  0  0  0  0  0  0  0  0  0  0  0
    2.8761   -3.9073    0.0000 C   0  0  0  0  0  0  0  0  0  0  0  0
   -1.4036   -3.1109    0.0000 O   0  0  0  0  0  0  0  0  0  0  0  0
    4.2855   -3.0651    0.0000 O   0  0  0  0  0  0  0  0  0  0  0  0
   -2.8474   -6.3995    0.0000 O   0  0  0  0  0  0  0  0  0  0  0  0
    6.4453   -5.1105    0.0000 O   0  0  0  0  0  0  0  0  0  0  0  0
    0.0058   -3.0995    0.0000 O   0  0  0  0  0  0  0  0  0  0  0  0
    2.8703   -3.0823    0.0000 O   0  0  0  0  0  0  0  0  0  0  0  0
    5.7292   -6.3594    0.0000 O   0  0  0  0  0  0  0  0  0  0  0  0
   -3.5234   -5.1105    0.0000 O   0  0  0  0  0  0  0  0  0  0  0  0
    1.4437   -3.0937    0.0000 C   0  0  0  0  0  0  0  0  0  0  0  0
    0.7219   -2.6870    0.0000 C   0  0  0  0  0  0  0  0  0  0  0  0
    2.1542   -2.6698    0.0000 C   0  0  0  0  0  0  0  0  0  0  0  0
    0.0172   -5.5745    0.0000 C   0  0  0  0  0  0  0  0  0  0  0  0
    2.8875   -5.5573    0.0000 C   0  0  0  0  0  0  0  0  0  0  0  0
    1.4437   -3.9187    0.0000 O   0  0  0  0  0  0  0  0  0  0  0  0
    2.1656   -5.1448    0.0000 C   0  0  0  0  0  0  0  0  0  0  0  0
    0.7276   -5.1620    0.0000 C   0  0  0  0  0  0  0  0  0  0  0  0
    0.7276   -4.3370    0.0000 C   0  0  0  0  0  0  0  0  0  0  0  0
    2.1656   -4.3198    0.0000 C   0  0  0  0  0  0  0  0  0  0  0  0
    0.0000    0.0000    0.0000 H   0  0  0  0  0  0  0  0  0  0  0  0
    0.0000    0.0000    0.0000 H   0  0  0  0  0  0  0  0  0  0  0  0
    0.0000    0.0000    0.0000 H   0  0  0  0  0  0  0  0  0  0  0  0
    0.0000    0.0000    0.0000 H   0  0  0  0  0  0  0  0  0  0  0  0
    0.0000    0.0000    0.0000 H   0  0  0  0  0  0  0  0  0  0  0  0
    0.0000    0.0000    0.0000 H   0  0  0  0  0  0  0  0  0  0  0  0
    0.0000    0.0000    0.0000 H   0  0  0  0  0  0  0  0  0  0  0  0
    0.0000    0.0000    0.0000 H   0  0  0  0  0  0  0  0  0  0  0  0
    0.0000    0.0000    0.0000 H   0  0  0  0  0  0  0  0  0  0  0  0
    0.0000    0.0000    0.0000 H   0  0  0  0  0  0  0  0  0  0  0  0
    0.0000    0.0000    0.0000 H   0  0  0  0  0  0  0  0  0  0  0  0
    0.0000    0.0000    0.0000 H   0  0  0  0  0  0  0  0  0  0  0  0
    0.0000    0.0000    0.0000 H   0  0  0  0  0  0  0  0  0  0  0  0
    0.0000    0.0000    0.0000 H   0  0  0  0  0  0  0  0  0  0  0  0
    0.0000    0.0000    0.0000 H   0  0  0  0  0  0  0  0  0  0  0  0
    0.0000    0.0000    0.0000 H   0  0  0  0  0  0  0  0  0  0  0  0
  2  4  2  0
  3  1  1  0
  4  1  1  0
  5 10  1  0
  6 14  1  0
  7  2  1  0
  8  3  2  0
  9  5  1  0
 10 16  2  0
 11 10  1  0
 12  2  1  0
 13  6  1  0
 14 11  1  0
 15  3  1  0
 16 22  1  0
 17  1  2  0
 18  5  2  0
 19 12  2  0
 20 13  1  0
 21 15  1  0
 22 27  1  0
 23 13  2  0
 24 12  1  0
 25 26  1  0
 26 21  1  0
 27 25  1  0
 28  8  1  0
 29 31  1  0
 30 25  1  0
 31 34  2  0
 32 33  1  0
 33 15  2  0
 34 16  1  0
  8  7  1  0
 28 32  2  0
 11 29  2  0
  9  6  2  0
  4 35  1  0
  9 36  1  0
 20 37  1  0
 24 38  1  0
 25 39  1  0
 26 40  1  0
 26 41  1  0
 27 42  1  0
 27 43  1  0
 28 44  1  0
 29 45  1  0
 30 46  1  0
 31 47  1  0
 32 48  1  0
 33 49  1  0
 34 50  1  0
M  END
>  <ALOGPS_LOGP>  (1) 
1.84

>  <ALOGPS_LOGS>  (1) 
-4.12

>  <ALOGPS_SOLUBILITY>  (1) 
3.58e-02 g/l

>  <DATABASE_ID>  (1) 
DB01003

>  <DATABASE_NAME>  (1) 
drugbank

>  <DRUGBANK_ID>  (1) 
DB01003

>  <DRUG_GROUPS>  (1) 
approved

>  <EXACT_MASS>  (1) 
468.069261354

>  <FORMULA>  (1) 
C23H16O11

>  <GENERIC_NAME>  (1) 
Cromoglicic acid

>  <INCHI_IDENTIFIER>  (1) 
InChI=1S/C23H16O11/c24-11(9-31-14-3-1-5-16-20(14)12(25)7-18(33-16)22(27)28)10-32-15-4-2-6-17-21(15)13(26)8-19(34-17)23(29)30/h1-8,11,24H,9-10H2,(H,27,28)(H,29,30)

>  <INCHI_KEY>  (1) 
IMZMKUWMOSJXDT-UHFFFAOYSA-N

>  <INTERNATIONAL_BRANDS>  (1) 
Aarane; Allergocrom; Colimune; Crolom; Cromo-Comod; Cromoptic; Gastrofrenal; Intal; Lomudal; Lomusol; Opticron; Rynacrom; Vividrin

>  <JCHEM_ACCEPTOR_COUNT>  (1) 
11

>  <JCHEM_AVERAGE_POLARIZABILITY>  (1) 
44.380974512822675

>  <JCHEM_BIOAVAILABILITY>  (1) 
1

>  <JCHEM_DONOR_COUNT>  (1) 
3

>  <JCHEM_FORMAL_CHARGE>  (1) 
0

>  <JCHEM_GHOSE_FILTER>  (1) 
1

>  <JCHEM_IUPAC>  (1) 
5-{3-[(2-carboxy-4-oxo-4H-chromen-5-yl)oxy]-2-hydroxypropoxy}-4-oxo-4H-chromene-2-carboxylic acid

>  <JCHEM_LOGP>  (1) 
1.4770116999999996

>  <JCHEM_MDDR_LIKE_RULE>  (1) 
1

>  <JCHEM_NUMBER_OF_RINGS>  (1) 
4

>  <JCHEM_PHYSIOLOGICAL_CHARGE>  (1) 
-2

>  <JCHEM_PKA>  (1) 
2.3784796797980388

>  <JCHEM_PKA_STRONGEST_ACIDIC>  (1) 
1.7736034775327054

>  <JCHEM_PKA_STRONGEST_BASIC>  (1) 
-3.392627216117863

>  <JCHEM_POLAR_SURFACE_AREA>  (1) 
165.89

>  <JCHEM_REFRACTIVITY>  (1) 
114.10670000000003

>  <JCHEM_ROTATABLE_BOND_COUNT>  (1) 
8

>  <JCHEM_RULE_OF_FIVE>  (1) 
0

>  <JCHEM_TRADITIONAL_IUPAC>  (1) 
cromoglicic acid

>  <JCHEM_VEBER_RULE>  (1) 
0

>  <MOLECULAR_WEIGHT>  (1) 
468.3665

>  <PRODUCTS>  (1) 
Allergan Eye Itch Relief; Anti-allergy Eye Drops; Apo-cromolyn Nasal Spray; Apo-cromolyn Sterules; Cromolyn Eye Drops; Cromolyn Sodium; Gastrocrom; Gen-cromoglycate Sterinebs - Liq Inh 1%; Gen-cromolyn Nasal Spray; Intal Inhaler; Intal Nebulizer 1%; Intal Spincaps 20mg; Intal Syncroner; Nalcrom; NasalCrom; Novo-cromolyn Nebulizer Solution 1%; Nu-cromolyn; Nu-cromolyn Plastic Ampules; Opticrom; Opticrom Liq 2%; PMS-sodium Cromoglycate; Rhinaris-CS Anti-allergic Nasal Mist; Rynacrom Solution 2%; Solu-crom; Vistacrom Eye Ointment 4%; Vistacrom Liq 2%

>  <SALTS>  (1) 
Cromoglicate sodium

>  <SECONDARY_ACCESSION_NUMBERS>  (1) 
APRD00336

>  <SMILES>  (1) 
OC(COC1=CC=CC2=C1C(=O)C=C(O2)C(O)=O)COC1=CC=CC2=C1C(=O)C=C(O2)C(O)=O

>  <SYNONYMS>  (1) 
5-[3-(2-carboxy-4-oxo-4H-5-chromenyloxy)-2-hydroxypropoxy]-4-oxo-4H-2-chromenecarboxylic acid; Acide Cromoglicique; Acido Cromoglicico; Acidum Cromoglicicum; Cromoglicate; Cromoglicic acid; Cromoglycate; Cromoglycic acid; Cromolyn

$$$$
