
     RDKit          2D

 98100  0  0  0  0  0  0  0  0999 V2000
   -0.5301   -0.4637    0.0000 O   0  0  0  0  0  0  0  0  0  0  0  0
   -0.8821    0.2265    0.0000 C   0  0  0  0  0  0  0  0  0  0  0  0
   -0.1574    0.6208    0.0000 N   0  0  0  0  0  0  0  0  0  0  0  0
    0.0345    1.4232    0.0000 C   0  0  0  0  0  0  0  0  0  0  0  0
    0.8569    1.4886    0.0000 C   0  0  0  0  0  0  0  0  0  0  0  0
    1.0929    0.8112    0.0000 C   0  0  0  0  0  0  0  0  0  0  0  0
    1.9986    0.7740    0.0000 S   0  0  0  0  0  0  0  0  0  0  0  0
    1.4458   -0.0230    0.0000 O   0  0  0  0  0  0  0  0  0  0  0  0
    2.8250    0.2933    0.0000 O   0  0  0  0  0  0  0  0  0  0  0  0
    2.4128    1.5992    0.0000 C   0  0  0  0  0  0  0  0  0  0  0  0
    1.9594    2.2884    0.0000 C   0  0  0  0  0  0  0  0  0  0  0  0
    2.3295    3.0257    0.0000 N   0  0  0  0  0  0  0  0  0  0  0  0
    1.8761    3.7149    0.0000 C   0  0  0  0  0  0  0  0  0  0  0  0
    2.2462    4.4522    0.0000 C   0  0  0  0  0  0  0  0  0  0  0  0
    3.1531    3.0738    0.0000 C   0  0  0  0  0  0  0  0  0  0  0  0
    3.5233    3.8111    0.0000 C   0  0  0  0  0  0  0  0  0  0  0  0
    0.5464    0.1903    0.0000 C   0  0  0  0  0  0  0  0  0  0  0  0
   -1.5859    0.6570    0.0000 C   0  0  0  0  0  0  0  0  0  0  0  0
   -1.9149    1.4502    0.0000 C   0  0  0  0  0  0  0  0  0  0  0  0
   -2.7396    1.4711    0.0000 O   0  0  0  0  0  0  0  0  0  0  0  0
   -2.3106    0.2627    0.0000 N   0  0  0  0  0  0  0  0  0  0  0  0
   -3.0143    0.6932    0.0000 C   0  0  0  0  0  0  0  0  0  0  0  0
   -3.7390    0.2989    0.0000 C   0  0  0  0  0  0  0  0  0  0  0  0
   -3.7599   -0.5258    0.0000 C   0  0  0  0  0  0  0  0  0  0  0  0
   -2.9498   -0.8595    0.0000 O   0  0  0  0  0  0  0  0  0  0  0  0
   -4.4846   -0.9201    0.0000 C   0  0  0  0  0  0  0  0  0  0  0  0
   -4.5055   -1.7448    0.0000 C   0  0  0  0  0  0  0  0  0  0  0  0
   -5.2465   -2.1496    0.0000 O   0  0  0  0  0  0  0  0  0  0  0  0
   -3.8017   -2.1753    0.0000 C   0  0  0  0  0  0  0  0  0  0  0  0
   -3.0770   -1.7810    0.0000 C   0  0  0  0  0  0  0  0  0  0  0  0
   -3.5413   -1.1291    0.0000 C   0  0  0  0  0  0  0  0  0  0  0  0
   -2.3732   -2.2115    0.0000 C   0  0  0  0  0  0  0  0  0  0  0  0
   -1.6485   -1.8172    0.0000 C   0  0  0  0  0  0  0  0  0  0  0  0
   -0.9447   -2.2477    0.0000 C   0  0  0  0  0  0  0  0  0  0  0  0
   -0.2201   -1.8534    0.0000 N   0  0  0  0  0  0  0  0  0  0  0  0
    0.4837   -2.2839    0.0000 C   0  0  0  0  0  0  0  0  0  0  0  0
    0.5327   -3.1349    0.0000 O   0  0  0  0  0  0  0  0  0  0  0  0
    1.2948   -1.8872    0.0000 C   0  0  0  0  0  0  0  0  0  0  0  0
    2.0971   -2.0792    0.0000 C   0  0  0  0  0  0  0  0  0  0  0  0
    2.5276   -1.3754    0.0000 C   0  0  0  0  0  0  0  0  0  0  0  0
    3.3748   -1.7293    0.0000 C   0  0  0  0  0  0  0  0  0  0  0  0
    1.9912   -0.7485    0.0000 C   0  0  0  0  0  0  0  0  0  0  0  0
    2.8724   -0.3753    0.0000 C   0  0  0  0  0  0  0  0  0  0  0  0
    3.4675    0.4352    0.0000 C   0  0  0  0  0  0  0  0  0  0  0  0
    3.5571   -0.9209    0.0000 C   0  0  0  0  0  0  0  0  0  0  0  0
    1.9749    0.1542    0.0000 O   0  0  0  0  0  0  0  0  0  0  0  0
    1.2711    0.5846    0.0000 C   0  0  0  0  0  0  0  0  0  0  0  0
    1.5393    1.5284    0.0000 O   0  0  0  0  0  0  0  0  0  0  0  0
    0.0000    0.0000    0.0000 H   0  0  0  0  0  0  0  0  0  0  0  0
    0.0000    0.0000    0.0000 H   0  0  0  0  0  0  0  0  0  0  0  0
    0.0000    0.0000    0.0000 H   0  0  0  0  0  0  0  0  0  0  0  0
    0.0000    0.0000    0.0000 H   0  0  0  0  0  0  0  0  0  0  0  0
    0.0000    0.0000    0.0000 H   0  0  0  0  0  0  0  0  0  0  0  0
    0.0000    0.0000    0.0000 H   0  0  0  0  0  0  0  0  0  0  0  0
    0.0000    0.0000    0.0000 H   0  0  0  0  0  0  0  0  0  0  0  0
    0.0000    0.0000    0.0000 H   0  0  0  0  0  0  0  0  0  0  0  0
    0.0000    0.0000    0.0000 H   0  0  0  0  0  0  0  0  0  0  0  0
    0.0000    0.0000    0.0000 H   0  0  0  0  0  0  0  0  0  0  0  0
    0.0000    0.0000    0.0000 H   0  0  0  0  0  0  0  0  0  0  0  0
    0.0000    0.0000    0.0000 H   0  0  0  0  0  0  0  0  0  0  0  0
    0.0000    0.0000    0.0000 H   0  0  0  0  0  0  0  0  0  0  0  0
    0.0000    0.0000    0.0000 H   0  0  0  0  0  0  0  0  0  0  0  0
    0.0000    0.0000    0.0000 H   0  0  0  0  0  0  0  0  0  0  0  0
    0.0000    0.0000    0.0000 H   0  0  0  0  0  0  0  0  0  0  0  0
    0.0000    0.0000    0.0000 H   0  0  0  0  0  0  0  0  0  0  0  0
    0.0000    0.0000    0.0000 H   0  0  0  0  0  0  0  0  0  0  0  0
    0.0000    0.0000    0.0000 H   0  0  0  0  0  0  0  0  0  0  0  0
    0.0000    0.0000    0.0000 H   0  0  0  0  0  0  0  0  0  0  0  0
    0.0000    0.0000    0.0000 H   0  0  0  0  0  0  0  0  0  0  0  0
    0.0000    0.0000    0.0000 H   0  0  0  0  0  0  0  0  0  0  0  0
    0.0000    0.0000    0.0000 H   0  0  0  0  0  0  0  0  0  0  0  0
    0.0000    0.0000    0.0000 H   0  0  0  0  0  0  0  0  0  0  0  0
    0.0000    0.0000    0.0000 H   0  0  0  0  0  0  0  0  0  0  0  0
    0.0000    0.0000    0.0000 H   0  0  0  0  0  0  0  0  0  0  0  0
    0.0000    0.0000    0.0000 H   0  0  0  0  0  0  0  0  0  0  0  0
    0.0000    0.0000    0.0000 H   0  0  0  0  0  0  0  0  0  0  0  0
    0.0000    0.0000    0.0000 H   0  0  0  0  0  0  0  0  0  0  0  0
    0.0000    0.0000    0.0000 H   0  0  0  0  0  0  0  0  0  0  0  0
    0.0000    0.0000    0.0000 H   0  0  0  0  0  0  0  0  0  0  0  0
    0.0000    0.0000    0.0000 H   0  0  0  0  0  0  0  0  0  0  0  0
    0.0000    0.0000    0.0000 H   0  0  0  0  0  0  0  0  0  0  0  0
    0.0000    0.0000    0.0000 H   0  0  0  0  0  0  0  0  0  0  0  0
    0.0000    0.0000    0.0000 H   0  0  0  0  0  0  0  0  0  0  0  0
    0.0000    0.0000    0.0000 H   0  0  0  0  0  0  0  0  0  0  0  0
    0.0000    0.0000    0.0000 H   0  0  0  0  0  0  0  0  0  0  0  0
    0.0000    0.0000    0.0000 H   0  0  0  0  0  0  0  0  0  0  0  0
    0.0000    0.0000    0.0000 H   0  0  0  0  0  0  0  0  0  0  0  0
    0.0000    0.0000    0.0000 H   0  0  0  0  0  0  0  0  0  0  0  0
    0.0000    0.0000    0.0000 H   0  0  0  0  0  0  0  0  0  0  0  0
    0.0000    0.0000    0.0000 H   0  0  0  0  0  0  0  0  0  0  0  0
    0.0000    0.0000    0.0000 H   0  0  0  0  0  0  0  0  0  0  0  0
    0.0000    0.0000    0.0000 H   0  0  0  0  0  0  0  0  0  0  0  0
    0.0000    0.0000    0.0000 H   0  0  0  0  0  0  0  0  0  0  0  0
    0.0000    0.0000    0.0000 H   0  0  0  0  0  0  0  0  0  0  0  0
    0.0000    0.0000    0.0000 H   0  0  0  0  0  0  0  0  0  0  0  0
    0.0000    0.0000    0.0000 H   0  0  0  0  0  0  0  0  0  0  0  0
    0.0000    0.0000    0.0000 H   0  0  0  0  0  0  0  0  0  0  0  0
    0.0000    0.0000    0.0000 H   0  0  0  0  0  0  0  0  0  0  0  0
  2  1  2  0
  2  3  1  0
  2 18  1  0
  4  3  1  0
 17  3  1  0
  5  4  1  0
  6  5  1  0
  6  7  1  6
 17  6  1  0
  8  7  2  0
  9  7  2  0
 10  7  1  0
 10 11  1  0
 11 12  1  0
 13 12  1  0
 15 12  1  0
 13 14  1  0
 15 16  1  0
 17 47  1  0
 19 18  2  0
 18 21  1  0
 19 20  1  0
 22 20  1  0
 22 21  2  0
 22 23  1  0
 23 24  1  0
 24 25  2  0
 24 26  1  0
 26 27  1  0
 27 28  1  6
 27 29  1  0
 29 30  2  0
 30 31  1  0
 30 32  1  0
 32 33  2  0
 33 34  1  0
 34 35  1  0
 36 35  1  0
 36 37  2  0
 36 38  1  0
 38 39  2  0
 39 40  1  0
 40 41  1  1
 40 42  1  0
 42 43  1  1
 42 46  1  0
 43 44  1  0
 43 45  1  0
 47 46  1  0
 47 48  2  0
  4 49  1  0
  4 50  1  0
  5 51  1  0
  5 52  1  0
  6 53  1  0
 10 54  1  0
 10 55  1  0
 11 56  1  0
 11 57  1  0
 13 58  1  0
 13 59  1  0
 14 60  1  0
 14 61  1  0
 14 62  1  0
 15 63  1  0
 15 64  1  0
 16 65  1  0
 16 66  1  0
 16 67  1  0
 17 68  1  1
 19 69  1  0
 23 70  1  0
 23 71  1  0
 26 72  1  0
 26 73  1  0
 27 74  1  0
 28 75  1  0
 29 76  1  0
 31 77  1  0
 31 78  1  0
 31 79  1  0
 32 80  1  0
 33 81  1  0
 34 82  1  0
 34 83  1  0
 35 84  1  0
 38 85  1  0
 39 86  1  0
 40 87  1  0
 41 88  1  0
 41 89  1  0
 41 90  1  0
 42 91  1  0
 43 92  1  0
 44 93  1  0
 44 94  1  0
 44 95  1  0
 45 96  1  0
 45 97  1  0
 45 98  1  0
M  END
>  <ALOGPS_LOGP>  (1) 
2.57

>  <ALOGPS_LOGS>  (1) 
-3.98

>  <ALOGPS_SOLUBILITY>  (1) 
7.16e-02 g/l

>  <DATABASE_ID>  (1) 
DB01764

>  <DATABASE_NAME>  (1) 
drugbank

>  <DRUGBANK_ID>  (1) 
DB01764

>  <DRUG_GROUPS>  (1) 
approved

>  <EXACT_MASS>  (1) 
690.32985038

>  <FORMULA>  (1) 
C34H50N4O9S

>  <GENERIC_NAME>  (1) 
Dalfopristin

>  <INCHI_IDENTIFIER>  (1) 
InChI=1S/C34H50N4O9S/c1-7-37(8-2)16-17-48(44,45)28-13-15-38-31(28)34(43)47-32(22(3)4)24(6)11-12-29(41)35-14-9-10-23(5)18-25(39)19-26(40)20-30-36-27(21-46-30)33(38)42/h9-12,18,21-22,24-25,28,31-32,39H,7-8,13-17,19-20H2,1-6H3,(H,35,41)/b10-9+,12-11+,23-18+/t24-,25-,28-,31-,32-/m1/s1

>  <INCHI_KEY>  (1) 
SUYRLXYYZQTJHF-VMBLUXKRSA-N

>  <JCHEM_ACCEPTOR_COUNT>  (1) 
9

>  <JCHEM_ATOM_COUNT>  (1) 
98

>  <JCHEM_AVERAGE_POLARIZABILITY>  (1) 
72.94362868748512

>  <JCHEM_BIOAVAILABILITY>  (1) 
1

>  <JCHEM_DONOR_COUNT>  (1) 
2

>  <JCHEM_FORMAL_CHARGE>  (1) 
0

>  <JCHEM_GHOSE_FILTER>  (1) 
0

>  <JCHEM_IUPAC>  (1) 
(6R,7S,10R,11R,12E,17E,19E,21S)-6-[2-(diethylamino)ethanesulfonyl]-21-hydroxy-11,19-dimethyl-10-(propan-2-yl)-9,26-dioxa-3,15,28-triazatricyclo[23.2.1.0³,⁷]octacosa-1(27),12,17,19,25(28)-pentaene-2,8,14,23-tetrone

>  <JCHEM_LOGP>  (1) 
1.581890930999999

>  <JCHEM_MDDR_LIKE_RULE>  (1) 
1

>  <JCHEM_NUMBER_OF_RINGS>  (1) 
3

>  <JCHEM_PHYSIOLOGICAL_CHARGE>  (1) 
1

>  <JCHEM_PKA>  (1) 
14.64594710648068

>  <JCHEM_PKA_STRONGEST_ACIDIC>  (1) 
11.378626065491774

>  <JCHEM_PKA_STRONGEST_BASIC>  (1) 
7.087876409962386

>  <JCHEM_POLAR_SURFACE_AREA>  (1) 
176.42

>  <JCHEM_REFRACTIVITY>  (1) 
182.8398000000001

>  <JCHEM_ROTATABLE_BOND_COUNT>  (1) 
7

>  <JCHEM_RULE_OF_FIVE>  (1) 
0

>  <JCHEM_TRADITIONAL_IUPAC>  (1) 
(6R,7S,10R,11R,12E,17E,19E,21S)-6-[2-(diethylamino)ethanesulfonyl]-21-hydroxy-10-isopropyl-11,19-dimethyl-9,26-dioxa-3,15,28-triazatricyclo[23.2.1.0³,⁷]octacosa-1(27),12,17,19,25(28)-pentaene-2,8,14,23-tetrone

>  <JCHEM_VEBER_RULE>  (1) 
0

>  <MOLECULAR_WEIGHT>  (1) 
690.85

>  <PRODUCTS>  (1) 
Synercid

>  <SALTS>  (1) 
Dalfopristin mesylate

>  <SECONDARY_ACCESSION_NUMBERS>  (1) 
EXPT01246

>  <SMILES>  (1) 
[H][C@]12[C@@H](CCN1C(=O)C1=COC(CC(=O)C[C@H](O)\C=C(/C)\C=C\CNC(=O)\C=C\[C@@H](C)[C@H](OC2=O)C(C)C)=N1)S(=O)(=O)CCN(CC)CC

>  <SYNONYMS>  (1) 
Dalfopristina; Dalfopristine; Dalfopristinum

$$$$
