1089
     RDKit          2D

 80 85  0  0  1  0  0  0  0  0999 V2000
    7.6757   -1.7074    0.0000 O   0  0  0  0  0  0  0  0  0  0  0  0
    8.8303   -0.4251    0.0000 O   0  0  0  0  0  0  0  0  0  0  0  0
    6.2364   -2.1232    0.0000 O   0  0  0  0  0  0  0  0  0  0  0  0
    5.1858   -1.1549    0.0000 O   0  0  0  0  0  0  0  0  0  0  0  0
    9.1220    0.9737    0.0000 O   0  0  0  0  0  0  0  0  0  0  0  0
   11.5111   -1.7140    0.0000 O   0  0  0  0  0  0  0  0  0  0  0  0
   12.0944    1.0837    0.0000 O   0  0  0  0  0  0  0  0  0  0  0  0
   12.6103   -0.4836    0.0000 O   0  0  0  0  0  0  0  0  0  0  0  0
    5.7462    1.7459    0.0000 N   0  0  0  0  0  0  0  0  0  0  0  0
    3.7226    0.8240    0.0000 N   0  0  0  0  0  0  0  0  0  0  0  0
    6.2863    0.1264    0.0000 C   0  0  0  0  0  0  0  0  0  0  0  0
    6.8613    0.7650    0.0000 C   0  0  0  0  0  0  0  0  0  0  0  0
    5.4471    0.3115    0.0000 C   0  0  0  0  0  0  0  0  0  0  0  0
    6.5497   -0.7290    0.0000 C   0  0  0  0  0  0  0  0  0  0  0  0
    5.1942    1.1328    0.0000 C   0  0  0  0  0  0  0  0  0  0  0  0
    6.5894    1.5801    0.0000 C   0  0  0  0  0  0  0  0  0  0  0  0
    7.7395    0.5924    0.0000 C   0  0  0  0  0  0  0  0  0  0  0  0
    7.4237   -0.9219    0.0000 C   0  0  0  0  0  0  0  0  0  0  0  0
    8.0227   -0.2567    0.0000 C   0  0  0  0  0  0  0  0  0  0  0  0
    4.3873    1.3043    0.0000 C   0  0  0  0  0  0  0  0  0  0  0  0
    5.4913    2.5304    0.0000 C   0  0  0  0  0  0  0  0  0  0  0  0
    4.6843    2.7019    0.0000 C   0  0  0  0  0  0  0  0  0  0  0  0
    4.1324    2.0889    0.0000 C   0  0  0  0  0  0  0  0  0  0  0  0
    5.9906   -1.3357    0.0000 C   0  0  0  0  0  0  0  0  0  0  0  0
    3.3123    2.0868    0.0000 C   0  0  0  0  0  0  0  0  0  0  0  0
    3.0595    1.3066    0.0000 C   0  0  0  0  0  0  0  0  0  0  0  0
    8.4819   -1.8821    0.0000 C   0  0  0  0  0  0  0  0  0  0  0  0
    2.7500    2.7298    0.0000 C   0  0  0  0  0  0  0  0  0  0  0  0
    9.3799    0.1901    0.0000 C   0  0  0  0  0  0  0  0  0  0  0  0
    2.2269    1.1154    0.0000 C   0  0  0  0  0  0  0  0  0  0  0  0
    1.9132    2.5580    0.0000 C   0  0  0  0  0  0  0  0  0  0  0  0
    5.6774   -2.7298    0.0000 C   0  0  0  0  0  0  0  0  0  0  0  0
    1.6499    1.7453    0.0000 C   0  0  0  0  0  0  0  0  0  0  0  0
   10.1876    0.0217    0.0000 C   0  0  0  0  0  0  0  0  0  0  0  0
   10.7372    0.6369    0.0000 C   0  0  0  0  0  0  0  0  0  0  0  0
   10.4455   -0.7619    0.0000 C   0  0  0  0  0  0  0  0  0  0  0  0
   11.2531   -0.9303    0.0000 C   0  0  0  0  0  0  0  0  0  0  0  0
   11.5448    0.4684    0.0000 C   0  0  0  0  0  0  0  0  0  0  0  0
   11.8028   -0.3151    0.0000 C   0  0  0  0  0  0  0  0  0  0  0  0
   10.9614   -2.3291    0.0000 C   0  0  0  0  0  0  0  0  0  0  0  0
   11.8365    1.8672    0.0000 C   0  0  0  0  0  0  0  0  0  0  0  0
   13.1600    0.1317    0.0000 C   0  0  0  0  0  0  0  0  0  0  0  0
    0.0000    0.0000    0.0000 H   0  0  0  0  0  0  0  0  0  0  0  0
    0.0000    0.0000    0.0000 H   0  0  0  0  0  0  0  0  0  0  0  0
    0.0000    0.0000    0.0000 H   0  0  0  0  0  0  0  0  0  0  0  0
    0.0000    0.0000    0.0000 H   0  0  0  0  0  0  0  0  0  0  0  0
    0.0000    0.0000    0.0000 H   0  0  0  0  0  0  0  0  0  0  0  0
    0.0000    0.0000    0.0000 H   0  0  0  0  0  0  0  0  0  0  0  0
    0.0000    0.0000    0.0000 H   0  0  0  0  0  0  0  0  0  0  0  0
    0.0000    0.0000    0.0000 H   0  0  0  0  0  0  0  0  0  0  0  0
    0.0000    0.0000    0.0000 H   0  0  0  0  0  0  0  0  0  0  0  0
    0.0000    0.0000    0.0000 H   0  0  0  0  0  0  0  0  0  0  0  0
    0.0000    0.0000    0.0000 H   0  0  0  0  0  0  0  0  0  0  0  0
    0.0000    0.0000    0.0000 H   0  0  0  0  0  0  0  0  0  0  0  0
    0.0000    0.0000    0.0000 H   0  0  0  0  0  0  0  0  0  0  0  0
    0.0000    0.0000    0.0000 H   0  0  0  0  0  0  0  0  0  0  0  0
    0.0000    0.0000    0.0000 H   0  0  0  0  0  0  0  0  0  0  0  0
    0.0000    0.0000    0.0000 H   0  0  0  0  0  0  0  0  0  0  0  0
    0.0000    0.0000    0.0000 H   0  0  0  0  0  0  0  0  0  0  0  0
    0.0000    0.0000    0.0000 H   0  0  0  0  0  0  0  0  0  0  0  0
    0.0000    0.0000    0.0000 H   0  0  0  0  0  0  0  0  0  0  0  0
    0.0000    0.0000    0.0000 H   0  0  0  0  0  0  0  0  0  0  0  0
    0.0000    0.0000    0.0000 H   0  0  0  0  0  0  0  0  0  0  0  0
    0.0000    0.0000    0.0000 H   0  0  0  0  0  0  0  0  0  0  0  0
    0.0000    0.0000    0.0000 H   0  0  0  0  0  0  0  0  0  0  0  0
    0.0000    0.0000    0.0000 H   0  0  0  0  0  0  0  0  0  0  0  0
    0.0000    0.0000    0.0000 H   0  0  0  0  0  0  0  0  0  0  0  0
    0.0000    0.0000    0.0000 H   0  0  0  0  0  0  0  0  0  0  0  0
    0.0000    0.0000    0.0000 H   0  0  0  0  0  0  0  0  0  0  0  0
    0.0000    0.0000    0.0000 H   0  0  0  0  0  0  0  0  0  0  0  0
    0.0000    0.0000    0.0000 H   0  0  0  0  0  0  0  0  0  0  0  0
    0.0000    0.0000    0.0000 H   0  0  0  0  0  0  0  0  0  0  0  0
    0.0000    0.0000    0.0000 H   0  0  0  0  0  0  0  0  0  0  0  0
    0.0000    0.0000    0.0000 H   0  0  0  0  0  0  0  0  0  0  0  0
    0.0000    0.0000    0.0000 H   0  0  0  0  0  0  0  0  0  0  0  0
    0.0000    0.0000    0.0000 H   0  0  0  0  0  0  0  0  0  0  0  0
    0.0000    0.0000    0.0000 H   0  0  0  0  0  0  0  0  0  0  0  0
    0.0000    0.0000    0.0000 H   0  0  0  0  0  0  0  0  0  0  0  0
    0.0000    0.0000    0.0000 H   0  0  0  0  0  0  0  0  0  0  0  0
    0.0000    0.0000    0.0000 H   0  0  0  0  0  0  0  0  0  0  0  0
 18  1  1  6
  1 27  1  0
 19  2  1  6
  2 29  1  0
  3 24  1  0
  3 32  1  0
  4 24  2  0
  5 29  2  0
  6 37  1  0
  6 40  1  0
  7 38  1  0
  7 41  1  0
  8 39  1  0
  8 42  1  0
  9 15  1  0
  9 16  1  0
  9 21  1  0
 10 20  1  0
 10 26  1  0
 11 12  1  0
 11 13  1  0
 11 14  1  0
 12 16  1  0
 12 17  1  0
 13 15  1  0
 14 18  1  0
 14 24  1  1
 15 20  1  0
 17 19  1  0
 18 19  1  0
 20 23  2  0
 21 22  1  0
 22 23  1  0
 23 25  1  0
 25 26  2  0
 25 28  1  0
 26 30  1  0
 28 31  2  0
 29 34  1  0
 30 33  2  0
 31 33  1  0
 34 35  2  0
 34 36  1  0
 35 38  1  0
 36 37  2  0
 37 39  1  0
 38 39  2  0
 10 43  1  0
 11 44  1  6
 12 45  1  6
 13 46  1  0
 13 47  1  0
 14 48  1  0
 15 49  1  1
 16 50  1  0
 16 51  1  0
 17 52  1  0
 17 53  1  0
 18 54  1  0
 19 55  1  0
 21 56  1  0
 21 57  1  0
 22 58  1  0
 22 59  1  0
 27 60  1  0
 27 61  1  0
 27 62  1  0
 28 63  1  0
 30 64  1  0
 31 65  1  0
 32 66  1  0
 32 67  1  0
 32 68  1  0
 33 69  1  0
 35 70  1  0
 36 71  1  0
 40 72  1  0
 40 73  1  0
 40 74  1  0
 41 75  1  0
 41 76  1  0
 41 77  1  0
 42 78  1  0
 42 79  1  0
 42 80  1  0
M  END
>  <ALOGPS_LOGP>  (1) 
4.25

>  <ALOGPS_LOGS>  (1) 
-4.72

>  <ALOGPS_SOLUBILITY>  (1) 
1.11e-02 g/l

>  <DATABASE_ID>  (1) 
DB01089

>  <DATABASE_NAME>  (1) 
drugbank

>  <DRUGBANK_ID>  (1) 
DB01089

>  <DRUG_GROUPS>  (1) 
approved

>  <EXACT_MASS>  (1) 
578.262816202

>  <FORMULA>  (1) 
C32H38N2O8

>  <GENERIC_NAME>  (1) 
Deserpidine

>  <INCHI_IDENTIFIER>  (1) 
InChI=1S/C32H38N2O8/c1-37-24-12-17(13-25(38-2)29(24)39-3)31(35)42-26-14-18-16-34-11-10-20-19-8-6-7-9-22(19)33-28(20)23(34)15-21(18)27(30(26)40-4)32(36)41-5/h6-9,12-13,18,21,23,26-27,30,33H,10-11,14-16H2,1-5H3/t18-,21+,23-,26-,27+,30+/m1/s1

>  <INCHI_KEY>  (1) 
CVBMAZKKCSYWQR-WCGOZPBSSA-N

>  <INTERNATIONAL_BRANDS>  (1) 
Harmonyl

>  <JCHEM_ACCEPTOR_COUNT>  (1) 
7

>  <JCHEM_AVERAGE_POLARIZABILITY>  (1) 
62.5914431939015

>  <JCHEM_BIOAVAILABILITY>  (1) 
1

>  <JCHEM_DONOR_COUNT>  (1) 
1

>  <JCHEM_FORMAL_CHARGE>  (1) 
0

>  <JCHEM_GHOSE_FILTER>  (1) 
0

>  <JCHEM_IUPAC>  (1) 
methyl (1R,15S,17R,18R,19S,20S)-18-methoxy-17-(3,4,5-trimethoxybenzoyloxy)-3,13-diazapentacyclo[11.8.0.0²,¹⁰.0⁴,⁹.0¹⁵,²⁰]henicosa-2(10),4,6,8-tetraene-19-carboxylate

>  <JCHEM_LOGP>  (1) 
3.689167208333335

>  <JCHEM_MDDR_LIKE_RULE>  (1) 
1

>  <JCHEM_NUMBER_OF_RINGS>  (1) 
6

>  <JCHEM_PHYSIOLOGICAL_CHARGE>  (1) 
1

>  <JCHEM_PKA_STRONGEST_ACIDIC>  (1) 
16.3749510832009

>  <JCHEM_PKA_STRONGEST_BASIC>  (1) 
7.571377467016942

>  <JCHEM_POLAR_SURFACE_AREA>  (1) 
108.55000000000001

>  <JCHEM_REFRACTIVITY>  (1) 
154.95529999999997

>  <JCHEM_ROTATABLE_BOND_COUNT>  (1) 
9

>  <JCHEM_RULE_OF_FIVE>  (1) 
0

>  <JCHEM_TRADITIONAL_IUPAC>  (1) 
deserpidine

>  <JCHEM_VEBER_RULE>  (1) 
0

>  <MOLECULAR_WEIGHT>  (1) 
578.6527

>  <SALTS>  (1) 
Deserpidine hydrochloride

>  <SECONDARY_ACCESSION_NUMBERS>  (1) 
APRD00906

>  <SMILES>  (1) 
[H][C@]12C[C@@H](OC(=O)C3=CC(OC)=C(OC)C(OC)=C3)[C@H](OC)[C@@H](C(=O)OC)[C@@]1([H])C[C@@]1([H])N(CCC3=C1NC1=CC=CC=C31)C2

>  <SYNONYMS>  (1) 
11-demethoxyreserpine; 11-desmethoxyreserpine; Canescine; Deserpidina; Deserpidinum; Raunormine

$$$$
