1348
     RDKit          2D

 61 63  0  0  1  0  0  0  0  0999 V2000
    6.6536   -1.7767    0.0000 S   0  0  0  0  0  0  0  0  0  0  0  0
    7.9885   -1.7767    0.0000 S   0  0  0  0  0  0  0  0  0  0  0  0
    6.7592    1.3989    0.0000 O   0  0  0  0  0  0  0  0  0  0  0  0
    9.0390    0.5590    0.0000 O   0  0  0  0  0  0  0  0  0  0  0  0
    7.8829    1.3989    0.0000 O   0  0  0  0  0  0  0  0  0  0  0  0
    2.9922    1.7214    0.0000 O   0  0  0  0  0  0  0  0  0  0  0  0
    4.1483    2.5613    0.0000 O   0  0  0  0  0  0  0  0  0  0  0  0
    6.9086   -0.0222    0.0000 N   0  0  0  0  0  0  0  0  0  0  0  0
    5.1182    1.2265    0.0000 N   0  0  0  0  0  0  0  0  0  0  0  0
    7.3211   -1.2918    0.0000 C   0  0  0  0  0  0  0  0  0  0  0  0
    7.9885   -0.8069    0.0000 C   0  0  0  0  0  0  0  0  0  0  0  0
    7.7336   -0.0222    0.0000 C   0  0  0  0  0  0  0  0  0  0  0  0
    6.6536   -0.8069    0.0000 C   0  0  0  0  0  0  0  0  0  0  0  0
    6.4236    0.6452    0.0000 C   0  0  0  0  0  0  0  0  0  0  0  0
    6.9086   -2.5613    0.0000 C   0  0  0  0  0  0  0  0  0  0  0  0
    7.7336   -2.5613    0.0000 C   0  0  0  0  0  0  0  0  0  0  0  0
    8.2185    0.6452    0.0000 C   0  0  0  0  0  0  0  0  0  0  0  0
    5.6032    0.5590    0.0000 C   0  0  0  0  0  0  0  0  0  0  0  0
    4.2977    1.1402    0.0000 C   0  0  0  0  0  0  0  0  0  0  0  0
    5.2675   -0.1947    0.0000 C   0  0  0  0  0  0  0  0  0  0  0  0
    3.9621    0.3865    0.0000 C   0  0  0  0  0  0  0  0  0  0  0  0
    3.1416    0.3003    0.0000 C   0  0  0  0  0  0  0  0  0  0  0  0
    3.8128    1.8077    0.0000 C   0  0  0  0  0  0  0  0  0  0  0  0
    2.8061   -0.4534    0.0000 C   0  0  0  0  0  0  0  0  0  0  0  0
    1.9856   -0.5396    0.0000 C   0  0  0  0  0  0  0  0  0  0  0  0
    3.2910   -1.1209    0.0000 C   0  0  0  0  0  0  0  0  0  0  0  0
    2.5074    2.3889    0.0000 C   0  0  0  0  0  0  0  0  0  0  0  0
    1.6500   -1.2933    0.0000 C   0  0  0  0  0  0  0  0  0  0  0  0
    2.9554   -1.8745    0.0000 C   0  0  0  0  0  0  0  0  0  0  0  0
    2.1350   -1.9608    0.0000 C   0  0  0  0  0  0  0  0  0  0  0  0
    1.6868    2.3026    0.0000 C   0  0  0  0  0  0  0  0  0  0  0  0
    0.0000    0.0000    0.0000 H   0  0  0  0  0  0  0  0  0  0  0  0
    0.0000    0.0000    0.0000 H   0  0  0  0  0  0  0  0  0  0  0  0
    0.0000    0.0000    0.0000 H   0  0  0  0  0  0  0  0  0  0  0  0
    0.0000    0.0000    0.0000 H   0  0  0  0  0  0  0  0  0  0  0  0
    0.0000    0.0000    0.0000 H   0  0  0  0  0  0  0  0  0  0  0  0
    0.0000    0.0000    0.0000 H   0  0  0  0  0  0  0  0  0  0  0  0
    0.0000    0.0000    0.0000 H   0  0  0  0  0  0  0  0  0  0  0  0
    0.0000    0.0000    0.0000 H   0  0  0  0  0  0  0  0  0  0  0  0
    0.0000    0.0000    0.0000 H   0  0  0  0  0  0  0  0  0  0  0  0
    0.0000    0.0000    0.0000 H   0  0  0  0  0  0  0  0  0  0  0  0
    0.0000    0.0000    0.0000 H   0  0  0  0  0  0  0  0  0  0  0  0
    0.0000    0.0000    0.0000 H   0  0  0  0  0  0  0  0  0  0  0  0
    0.0000    0.0000    0.0000 H   0  0  0  0  0  0  0  0  0  0  0  0
    0.0000    0.0000    0.0000 H   0  0  0  0  0  0  0  0  0  0  0  0
    0.0000    0.0000    0.0000 H   0  0  0  0  0  0  0  0  0  0  0  0
    0.0000    0.0000    0.0000 H   0  0  0  0  0  0  0  0  0  0  0  0
    0.0000    0.0000    0.0000 H   0  0  0  0  0  0  0  0  0  0  0  0
    0.0000    0.0000    0.0000 H   0  0  0  0  0  0  0  0  0  0  0  0
    0.0000    0.0000    0.0000 H   0  0  0  0  0  0  0  0  0  0  0  0
    0.0000    0.0000    0.0000 H   0  0  0  0  0  0  0  0  0  0  0  0
    0.0000    0.0000    0.0000 H   0  0  0  0  0  0  0  0  0  0  0  0
    0.0000    0.0000    0.0000 H   0  0  0  0  0  0  0  0  0  0  0  0
    0.0000    0.0000    0.0000 H   0  0  0  0  0  0  0  0  0  0  0  0
    0.0000    0.0000    0.0000 H   0  0  0  0  0  0  0  0  0  0  0  0
    0.0000    0.0000    0.0000 H   0  0  0  0  0  0  0  0  0  0  0  0
    0.0000    0.0000    0.0000 H   0  0  0  0  0  0  0  0  0  0  0  0
    0.0000    0.0000    0.0000 H   0  0  0  0  0  0  0  0  0  0  0  0
    0.0000    0.0000    0.0000 H   0  0  0  0  0  0  0  0  0  0  0  0
    0.0000    0.0000    0.0000 H   0  0  0  0  0  0  0  0  0  0  0  0
    0.0000    0.0000    0.0000 H   0  0  0  0  0  0  0  0  0  0  0  0
  1 10  1  0
  1 15  1  0
  2 10  1  0
  2 16  1  0
  3 14  2  0
  4 17  1  0
  5 17  2  0
  6 23  1  0
  6 27  1  0
  7 23  2  0
  8 12  1  0
  8 13  1  0
  8 14  1  0
 18  9  1  6
 19  9  1  6
 10 11  1  0
 10 13  1  0
 11 12  1  0
 12 17  1  6
 14 18  1  0
 15 16  1  0
 18 20  1  0
 19 21  1  0
 19 23  1  0
 21 22  1  0
 22 24  1  0
 24 25  2  0
 24 26  1  0
 25 28  1  0
 26 29  2  0
 27 31  1  0
 28 30  2  0
 29 30  1  0
  4 32  1  0
  9 33  1  0
 11 34  1  0
 11 35  1  0
 12 36  1  0
 13 37  1  0
 13 38  1  0
 15 39  1  0
 15 40  1  0
 16 41  1  0
 16 42  1  0
 18 43  1  0
 19 44  1  0
 20 45  1  0
 20 46  1  0
 20 47  1  0
 21 48  1  0
 21 49  1  0
 22 50  1  0
 22 51  1  0
 25 52  1  0
 26 53  1  0
 27 54  1  0
 27 55  1  0
 28 56  1  0
 29 57  1  0
 30 58  1  0
 31 59  1  0
 31 60  1  0
 31 61  1  0
M  END
>  <ALOGPS_LOGP>  (1) 
1.79

>  <ALOGPS_LOGS>  (1) 
-4.20

>  <ALOGPS_SOLUBILITY>  (1) 
2.93e-02 g/l

>  <DATABASE_ID>  (1) 
DB01348

>  <DATABASE_NAME>  (1) 
drugbank

>  <DRUGBANK_ID>  (1) 
DB01348

>  <DRUG_GROUPS>  (1) 
approved

>  <EXACT_MASS>  (1) 
466.15961346

>  <FORMULA>  (1) 
C22H30N2O5S2

>  <GENERIC_NAME>  (1) 
Spirapril

>  <INCHI_IDENTIFIER>  (1) 
InChI=1S/C22H30N2O5S2/c1-3-29-21(28)17(10-9-16-7-5-4-6-8-16)23-15(2)19(25)24-14-22(30-11-12-31-22)13-18(24)20(26)27/h4-8,15,17-18,23H,3,9-14H2,1-2H3,(H,26,27)/t15-,17-,18-/m0/s1

>  <INCHI_KEY>  (1) 
HRWCVUIFMSZDJS-SZMVWBNQSA-N

>  <JCHEM_ACCEPTOR_COUNT>  (1) 
5

>  <JCHEM_AVERAGE_POLARIZABILITY>  (1) 
48.74005483504923

>  <JCHEM_BIOAVAILABILITY>  (1) 
1

>  <JCHEM_DONOR_COUNT>  (1) 
2

>  <JCHEM_FORMAL_CHARGE>  (1) 
0

>  <JCHEM_GHOSE_FILTER>  (1) 
1

>  <JCHEM_IUPAC>  (1) 
(8S)-7-[(2S)-2-{[(2S)-1-ethoxy-1-oxo-4-phenylbutan-2-yl]amino}propanoyl]-1,4-dithia-7-azaspiro[4.4]nonane-8-carboxylic acid

>  <JCHEM_LOGP>  (1) 
1.6036345915656902

>  <JCHEM_MDDR_LIKE_RULE>  (1) 
1

>  <JCHEM_NUMBER_OF_RINGS>  (1) 
3

>  <JCHEM_PHYSIOLOGICAL_CHARGE>  (1) 
-1

>  <JCHEM_PKA_STRONGEST_ACIDIC>  (1) 
3.6249575075648437

>  <JCHEM_PKA_STRONGEST_BASIC>  (1) 
5.199901730998292

>  <JCHEM_POLAR_SURFACE_AREA>  (1) 
95.93999999999998

>  <JCHEM_REFRACTIVITY>  (1) 
121.93960000000001

>  <JCHEM_ROTATABLE_BOND_COUNT>  (1) 
10

>  <JCHEM_RULE_OF_FIVE>  (1) 
1

>  <JCHEM_TRADITIONAL_IUPAC>  (1) 
spirapril

>  <JCHEM_VEBER_RULE>  (1) 
0

>  <MOLECULAR_WEIGHT>  (1) 
466.614

>  <SALTS>  (1) 
Spirapril hydrochloride

>  <SMILES>  (1) 
CCOC(=O)[C@H](CCC1=CC=CC=C1)N[C@@H](C)C(=O)N1CC2(C[C@H]1C(O)=O)SCCS2

$$$$
