1006
     RDKit          2D

 33 35  0  0  0  0  0  0  0  0999 V2000
    2.9558    1.4438    0.0000 N   0  0  0  0  0  0  0  0  0  0  0  0
    2.8695    2.2643    0.0000 N   0  0  0  0  0  0  0  0  0  0  0  0
    1.6500    1.7213    0.0000 N   0  0  0  0  0  0  0  0  0  0  0  0
    3.6703   -3.0938    0.0000 N   0  0  0  0  0  0  0  0  0  0  0  0
    7.2427    3.0938    0.0000 N   0  0  0  0  0  0  0  0  0  0  0  0
    3.6703    1.0313    0.0000 C   0  0  0  0  0  0  0  0  0  0  0  0
    3.6703    0.2063    0.0000 C   0  0  0  0  0  0  0  0  0  0  0  0
    4.3847    1.4438    0.0000 C   0  0  0  0  0  0  0  0  0  0  0  0
    2.9558   -0.2063    0.0000 C   0  0  0  0  0  0  0  0  0  0  0  0
    5.0993    1.0313    0.0000 C   0  0  0  0  0  0  0  0  0  0  0  0
    4.3847   -0.2063    0.0000 C   0  0  0  0  0  0  0  0  0  0  0  0
    4.3847    2.2688    0.0000 C   0  0  0  0  0  0  0  0  0  0  0  0
    2.2021    1.1082    0.0000 C   0  0  0  0  0  0  0  0  0  0  0  0
    2.9558   -1.0313    0.0000 C   0  0  0  0  0  0  0  0  0  0  0  0
    5.8137    1.4438    0.0000 C   0  0  0  0  0  0  0  0  0  0  0  0
    4.3847   -1.0313    0.0000 C   0  0  0  0  0  0  0  0  0  0  0  0
    5.0993    2.6813    0.0000 C   0  0  0  0  0  0  0  0  0  0  0  0
    3.6703   -1.4438    0.0000 C   0  0  0  0  0  0  0  0  0  0  0  0
    5.8137    2.2688    0.0000 C   0  0  0  0  0  0  0  0  0  0  0  0
    2.0625    2.4358    0.0000 C   0  0  0  0  0  0  0  0  0  0  0  0
    3.6703   -2.2688    0.0000 C   0  0  0  0  0  0  0  0  0  0  0  0
    6.5282    2.6813    0.0000 C   0  0  0  0  0  0  0  0  0  0  0  0
    0.0000    0.0000    0.0000 H   0  0  0  0  0  0  0  0  0  0  0  0
    0.0000    0.0000    0.0000 H   0  0  0  0  0  0  0  0  0  0  0  0
    0.0000    0.0000    0.0000 H   0  0  0  0  0  0  0  0  0  0  0  0
    0.0000    0.0000    0.0000 H   0  0  0  0  0  0  0  0  0  0  0  0
    0.0000    0.0000    0.0000 H   0  0  0  0  0  0  0  0  0  0  0  0
    0.0000    0.0000    0.0000 H   0  0  0  0  0  0  0  0  0  0  0  0
    0.0000    0.0000    0.0000 H   0  0  0  0  0  0  0  0  0  0  0  0
    0.0000    0.0000    0.0000 H   0  0  0  0  0  0  0  0  0  0  0  0
    0.0000    0.0000    0.0000 H   0  0  0  0  0  0  0  0  0  0  0  0
    0.0000    0.0000    0.0000 H   0  0  0  0  0  0  0  0  0  0  0  0
    0.0000    0.0000    0.0000 H   0  0  0  0  0  0  0  0  0  0  0  0
  1  2  1  0
  1  6  1  0
  1 13  1  0
  2 20  2  0
  3 13  2  0
  3 20  1  0
  4 21  3  0
  5 22  3  0
  6  7  1  0
  6  8  1  0
  7  9  2  0
  7 11  1  0
  8 10  2  0
  8 12  1  0
  9 14  1  0
 10 15  1  0
 11 16  2  0
 12 17  2  0
 14 18  2  0
 15 19  2  0
 16 18  1  0
 17 19  1  0
 18 21  1  0
 19 22  1  0
  6 23  1  0
  9 24  1  0
 10 25  1  0
 11 26  1  0
 12 27  1  0
 13 28  1  0
 14 29  1  0
 15 30  1  0
 16 31  1  0
 17 32  1  0
 20 33  1  0
M  END
>  <ALOGPS_LOGP>  (1) 
1.86

>  <ALOGPS_LOGS>  (1) 
-3.55

>  <ALOGPS_SOLUBILITY>  (1) 
7.99e-02 g/l

>  <DATABASE_ID>  (1) 
DB01006

>  <DATABASE_NAME>  (1) 
drugbank

>  <DRUGBANK_ID>  (1) 
DB01006

>  <DRUG_GROUPS>  (1) 
approved; investigational

>  <EXACT_MASS>  (1) 
285.101445377

>  <FORMULA>  (1) 
C17H11N5

>  <GENERIC_NAME>  (1) 
Letrozole

>  <INCHI_IDENTIFIER>  (1) 
InChI=1S/C17H11N5/c18-9-13-1-5-15(6-2-13)17(22-12-20-11-21-22)16-7-3-14(10-19)4-8-16/h1-8,11-12,17H

>  <INCHI_KEY>  (1) 
HPJKCIUCZWXJDR-UHFFFAOYSA-N

>  <JCHEM_ACCEPTOR_COUNT>  (1) 
4

>  <JCHEM_AVERAGE_POLARIZABILITY>  (1) 
29.58909479310946

>  <JCHEM_BIOAVAILABILITY>  (1) 
1

>  <JCHEM_DONOR_COUNT>  (1) 
0

>  <JCHEM_FORMAL_CHARGE>  (1) 
0

>  <JCHEM_GHOSE_FILTER>  (1) 
1

>  <JCHEM_IUPAC>  (1) 
4-[(4-cyanophenyl)(1H-1,2,4-triazol-1-yl)methyl]benzonitrile

>  <JCHEM_LOGP>  (1) 
2.9354919133333333

>  <JCHEM_MDDR_LIKE_RULE>  (1) 
0

>  <JCHEM_NUMBER_OF_RINGS>  (1) 
3

>  <JCHEM_PHYSIOLOGICAL_CHARGE>  (1) 
0

>  <JCHEM_PKA_STRONGEST_BASIC>  (1) 
2.1733026282717627

>  <JCHEM_POLAR_SURFACE_AREA>  (1) 
78.28999999999999

>  <JCHEM_REFRACTIVITY>  (1) 
94.4741

>  <JCHEM_ROTATABLE_BOND_COUNT>  (1) 
3

>  <JCHEM_RULE_OF_FIVE>  (1) 
1

>  <JCHEM_TRADITIONAL_IUPAC>  (1) 
letrozole

>  <JCHEM_VEBER_RULE>  (1) 
0

>  <MOLECULAR_WEIGHT>  (1) 
285.3027

>  <PRODUCTS>  (1) 
Accel-letrozole Tablets USP; Ach-letrozole; Ag-letrozole; Apo-letrozole; Auro-letrozole; Bio-letrozole; Ccp-letrozole; Co Letrozole; Dom-letrozole; Femara; Femara 2.5mg; Ipg-letrozole; Jamp-letrozole; Kisqali Femara Co-pack; Letrozole; Letrozole Sun; Letrozole Tablets; Mar-letrozole; Med-letrozole; Myl-letrozole; Mylan-letrozole; Nat-letrozole; PHL-letrozole; PMS-letrozole; Ran-letrozole; Riva-letrozole; Sandoz Letrozole; Stason-letrozole; Teva-letrozole; Van-letrozole; Zinda-letrozole

>  <SECONDARY_ACCESSION_NUMBERS>  (1) 
APRD01066

>  <SMILES>  (1) 
N#CC1=CC=C(C=C1)C(N1C=NC=N1)C1=CC=C(C=C1)C#N

>  <SYNONYMS>  (1) 
Letrozol

$$$$
