
     RDKit          2D

 51 54  0  0  1  0  0  0  0  0999 V2000
   10.5351   -8.4707    0.0000 C   0  0  0  0  0  0  0  0  0  0  0  0
   10.5351   -7.6458    0.0000 C   0  0  0  0  0  0  0  0  0  0  0  0
    9.8206   -7.2333    0.0000 S   0  0  0  0  0  0  0  0  0  0  0  0
    9.8206   -8.8833    0.0000 C   0  0  0  0  0  0  0  0  0  0  0  0
    9.1061   -8.4707    0.0000 N   0  0  0  0  0  0  0  0  0  0  0  0
    9.1061   -7.6458    0.0000 C   0  0  0  0  0  0  0  0  0  0  0  0
    8.2811   -7.6458    0.0000 C   0  0  0  0  0  0  0  0  0  0  0  0
    8.2811   -8.4707    0.0000 C   0  0  0  0  0  0  0  0  0  0  0  0
    7.5666   -8.8833    0.0000 O   0  0  0  0  0  0  0  0  0  0  0  0
    6.8522   -7.6458    0.0000 C   0  0  0  0  0  0  0  0  0  0  0  0
    6.1377   -7.2333    0.0000 C   0  0  0  0  0  0  0  0  0  0  0  0
    6.8522   -8.4707    0.0000 O   0  0  0  0  0  0  0  0  0  0  0  0
    6.1377   -6.4083    0.0000 N   0  0  0  0  0  0  0  0  0  0  0  0
    5.4232   -7.6458    0.0000 C   0  0  0  0  0  0  0  0  0  0  0  0
    6.8522   -5.9957    0.0000 O   0  0  0  0  0  0  0  0  0  0  0  0
    5.3370   -8.4663    0.0000 C   0  0  0  0  0  0  0  0  0  0  0  0
    4.5300   -8.6378    0.0000 S   0  0  0  0  0  0  0  0  0  0  0  0
    4.1175   -7.9233    0.0000 C   0  0  0  0  0  0  0  0  0  0  0  0
    4.6695   -7.3102    0.0000 N   0  0  0  0  0  0  0  0  0  0  0  0
    9.8206   -9.7083    0.0000 C   0  0  0  0  0  0  0  0  0  0  0  0
    9.1061  -10.1208    0.0000 O   0  0  0  0  0  0  0  0  0  0  0  0
   10.5351  -10.1208    0.0000 O   0  0  0  0  0  0  0  0  0  0  0  0
   11.2496   -8.8833    0.0000 C   0  0  0  0  0  0  0  0  0  0  0  0
   11.9641   -8.4707    0.0000 C   0  0  0  0  0  0  0  0  0  0  0  0
   11.9641   -7.6458    0.0000 C   0  0  0  0  0  0  0  0  0  0  0  0
   12.6315   -7.1609    0.0000 C   0  0  0  0  0  0  0  0  0  0  0  0
   12.3766   -6.3762    0.0000 N   0  0  0  0  0  0  0  0  0  0  0  0
   11.5515   -6.3762    0.0000 C   0  0  0  0  0  0  0  0  0  0  0  0
   11.2966   -7.1609    0.0000 S   0  0  0  0  0  0  0  0  0  0  0  0
   13.4161   -7.4158    0.0000 C   0  0  0  0  0  0  0  0  0  0  0  0
    7.5666   -7.2333    0.0000 N   0  0  0  0  0  0  0  0  0  0  0  0
    3.2970   -7.8371    0.0000 N   0  0  0  0  0  0  0  0  0  0  0  0
    6.8522   -5.1710    0.0000 C   0  0  0  0  0  0  0  0  0  0  0  0
    0.0000    0.0000    0.0000 H   0  0  0  0  0  0  0  0  0  0  0  0
    0.0000    0.0000    0.0000 H   0  0  0  0  0  0  0  0  0  0  0  0
    0.0000    0.0000    0.0000 H   0  0  0  0  0  0  0  0  0  0  0  0
    0.0000    0.0000    0.0000 H   0  0  0  0  0  0  0  0  0  0  0  0
    0.0000    0.0000    0.0000 H   0  0  0  0  0  0  0  0  0  0  0  0
    0.0000    0.0000    0.0000 H   0  0  0  0  0  0  0  0  0  0  0  0
    0.0000    0.0000    0.0000 H   0  0  0  0  0  0  0  0  0  0  0  0
    0.0000    0.0000    0.0000 H   0  0  0  0  0  0  0  0  0  0  0  0
    0.0000    0.0000    0.0000 H   0  0  0  0  0  0  0  0  0  0  0  0
    0.0000    0.0000    0.0000 H   0  0  0  0  0  0  0  0  0  0  0  0
    0.0000    0.0000    0.0000 H   0  0  0  0  0  0  0  0  0  0  0  0
    0.0000    0.0000    0.0000 H   0  0  0  0  0  0  0  0  0  0  0  0
    0.0000    0.0000    0.0000 H   0  0  0  0  0  0  0  0  0  0  0  0
    0.0000    0.0000    0.0000 H   0  0  0  0  0  0  0  0  0  0  0  0
    0.0000    0.0000    0.0000 H   0  0  0  0  0  0  0  0  0  0  0  0
    0.0000    0.0000    0.0000 H   0  0  0  0  0  0  0  0  0  0  0  0
    0.0000    0.0000    0.0000 H   0  0  0  0  0  0  0  0  0  0  0  0
    0.0000    0.0000    0.0000 H   0  0  0  0  0  0  0  0  0  0  0  0
  1  4  2  0
  2  3  1  0
  3  6  1  0
  5  4  1  0
  5  6  1  0
  6  7  1  0
  7  8  1  0
  8  5  1  0
  8  9  2  0
 10 11  1  0
 10 12  2  0
 11 13  2  0
 11 14  1  0
 13 15  1  0
 14 16  2  0
 16 17  1  0
 17 18  1  0
 18 19  2  0
 19 14  1  0
  4 20  1  0
 20 21  1  0
 20 22  2  0
  1 23  1  0
 23 24  2  0
 24 25  1  0
 25 26  2  0
 26 27  1  0
 27 28  2  0
 28 29  1  0
 29 25  1  0
 26 30  1  0
  1  2  1  0
  7 31  1  1
 31 10  1  0
 18 32  1  0
 15 33  1  0
  2 34  1  0
  2 35  1  0
  6 36  1  6
  7 37  1  0
 16 38  1  0
 21 39  1  0
 23 40  1  0
 24 41  1  0
 28 42  1  0
 30 43  1  0
 30 44  1  0
 30 45  1  0
 31 46  1  0
 32 47  1  0
 32 48  1  0
 33 49  1  0
 33 50  1  0
 33 51  1  0
M  END
>  <ALOGPS_LOGP>  (1) 
1.70

>  <ALOGPS_LOGS>  (1) 
-4.06

>  <ALOGPS_SOLUBILITY>  (1) 
4.41e-02 g/l

>  <DATABASE_ID>  (1) 
DB01066

>  <DATABASE_NAME>  (1) 
drugbank

>  <DRUGBANK_ID>  (1) 
DB01066

>  <DRUG_GROUPS>  (1) 
approved

>  <EXACT_MASS>  (1) 
506.050079786

>  <FORMULA>  (1) 
C19H18N6O5S3

>  <GENERIC_NAME>  (1) 
Cefditoren

>  <INCHI_IDENTIFIER>  (1) 
InChI=1S/C19H18N6O5S3/c1-8-11(33-7-21-8)4-3-9-5-31-17-13(16(27)25(17)14(9)18(28)29)23-15(26)12(24-30-2)10-6-32-19(20)22-10/h3-4,6-7,13,17H,5H2,1-2H3,(H2,20,22)(H,23,26)(H,28,29)/b4-3-,24-12-/t13-,17-/m1/s1

>  <INCHI_KEY>  (1) 
KMIPKYQIOVAHOP-YLGJWRNMSA-N

>  <JCHEM_ACCEPTOR_COUNT>  (1) 
9

>  <JCHEM_AVERAGE_POLARIZABILITY>  (1) 
49.189756434081815

>  <JCHEM_BIOAVAILABILITY>  (1) 
1

>  <JCHEM_DONOR_COUNT>  (1) 
3

>  <JCHEM_FORMAL_CHARGE>  (1) 
0

>  <JCHEM_GHOSE_FILTER>  (1) 
0

>  <JCHEM_IUPAC>  (1) 
(6R,7R)-7-[(2Z)-2-(2-amino-1,3-thiazol-4-yl)-2-(methoxyimino)acetamido]-3-[(Z)-2-(4-methyl-1,3-thiazol-5-yl)ethenyl]-8-oxo-5-thia-1-azabicyclo[4.2.0]oct-2-ene-2-carboxylic acid

>  <JCHEM_LOGP>  (1) 
-0.1513773287138842

>  <JCHEM_MDDR_LIKE_RULE>  (1) 
1

>  <JCHEM_NUMBER_OF_RINGS>  (1) 
4

>  <JCHEM_PHYSIOLOGICAL_CHARGE>  (1) 
-1

>  <JCHEM_PKA>  (1) 
10.900477463334207

>  <JCHEM_PKA_STRONGEST_ACIDIC>  (1) 
3.3953579958014948

>  <JCHEM_PKA_STRONGEST_BASIC>  (1) 
4.217499743742123

>  <JCHEM_POLAR_SURFACE_AREA>  (1) 
160.1

>  <JCHEM_REFRACTIVITY>  (1) 
124.1797

>  <JCHEM_ROTATABLE_BOND_COUNT>  (1) 
7

>  <JCHEM_RULE_OF_FIVE>  (1) 
0

>  <JCHEM_TRADITIONAL_IUPAC>  (1) 
cefditoren

>  <JCHEM_VEBER_RULE>  (1) 
0

>  <MOLECULAR_WEIGHT>  (1) 
506.578

>  <PRODUCTS>  (1) 
Cefditoren Pivoxil; Spectracef

>  <SALTS>  (1) 
Cefditoren pivoxil

>  <SECONDARY_ACCESSION_NUMBERS>  (1) 
APRD00850

>  <SMILES>  (1) 
[H][C@]12SCC(\C=C/C3=C(C)N=CS3)=C(N1C(=O)[C@H]2NC(=O)C(=N/OC)\C1=CSC(N)=N1)C(O)=O

$$$$
