1326
     RDKit          2D

 49 52  0  0  1  0  0  0  0  0999 V2000
    5.8136   -0.8460    0.0000 S   0  0  0  0  0  0  0  0  0  0  0  0
    3.6702    0.3915    0.0000 S   0  0  0  0  0  0  0  0  0  0  0  0
    7.9421    0.9795    0.0000 O   0  0  0  0  0  0  0  0  0  0  0  0
    5.0992    2.0416    0.0000 O   0  0  0  0  0  0  0  0  0  0  0  0
    8.9546   -0.0131    0.0000 O   0  0  0  0  0  0  0  0  0  0  0  0
    6.5281    2.0416    0.0000 O   0  0  0  0  0  0  0  0  0  0  0  0
    9.1064   -2.1906    0.0000 O   0  0  0  0  0  0  0  0  0  0  0  0
    6.5281    0.3915    0.0000 N   0  0  0  0  0  0  0  0  0  0  0  0
    7.9421   -1.0214    0.0000 N   0  0  0  0  0  0  0  0  0  0  0  0
    2.2020    0.4684    0.0000 N   0  0  0  0  0  0  0  0  0  0  0  0
    2.8694    1.6245    0.0000 N   0  0  0  0  0  0  0  0  0  0  0  0
    1.6500    1.0816    0.0000 N   0  0  0  0  0  0  0  0  0  0  0  0
    2.0625    1.7960    0.0000 N   0  0  0  0  0  0  0  0  0  0  0  0
    6.5281   -0.4335    0.0000 C   0  0  0  0  0  0  0  0  0  0  0  0
    7.3599   -0.4369    0.0000 C   0  0  0  0  0  0  0  0  0  0  0  0
    7.3599    0.3949    0.0000 C   0  0  0  0  0  0  0  0  0  0  0  0
    5.8136    0.8040    0.0000 C   0  0  0  0  0  0  0  0  0  0  0  0
    5.0992    0.3915    0.0000 C   0  0  0  0  0  0  0  0  0  0  0  0
    5.0992   -0.4335    0.0000 C   0  0  0  0  0  0  0  0  0  0  0  0
    4.3846    0.8040    0.0000 C   0  0  0  0  0  0  0  0  0  0  0  0
    8.7394   -0.8096    0.0000 C   0  0  0  0  0  0  0  0  0  0  0  0
    5.8136    1.6291    0.0000 C   0  0  0  0  0  0  0  0  0  0  0  0
    9.3215   -1.3942    0.0000 C   0  0  0  0  0  0  0  0  0  0  0  0
   10.1189   -1.1822    0.0000 C   0  0  0  0  0  0  0  0  0  0  0  0
    2.9557    0.8040    0.0000 C   0  0  0  0  0  0  0  0  0  0  0  0
   10.3341   -0.3858    0.0000 C   0  0  0  0  0  0  0  0  0  0  0  0
   10.7011   -1.7668    0.0000 C   0  0  0  0  0  0  0  0  0  0  0  0
   11.1314   -0.1739    0.0000 C   0  0  0  0  0  0  0  0  0  0  0  0
   11.4984   -1.5550    0.0000 C   0  0  0  0  0  0  0  0  0  0  0  0
   11.7136   -0.7585    0.0000 C   0  0  0  0  0  0  0  0  0  0  0  0
    2.0305   -0.3385    0.0000 C   0  0  0  0  0  0  0  0  0  0  0  0
    0.0000    0.0000    0.0000 H   0  0  0  0  0  0  0  0  0  0  0  0
    0.0000    0.0000    0.0000 H   0  0  0  0  0  0  0  0  0  0  0  0
    0.0000    0.0000    0.0000 H   0  0  0  0  0  0  0  0  0  0  0  0
    0.0000    0.0000    0.0000 H   0  0  0  0  0  0  0  0  0  0  0  0
    0.0000    0.0000    0.0000 H   0  0  0  0  0  0  0  0  0  0  0  0
    0.0000    0.0000    0.0000 H   0  0  0  0  0  0  0  0  0  0  0  0
    0.0000    0.0000    0.0000 H   0  0  0  0  0  0  0  0  0  0  0  0
    0.0000    0.0000    0.0000 H   0  0  0  0  0  0  0  0  0  0  0  0
    0.0000    0.0000    0.0000 H   0  0  0  0  0  0  0  0  0  0  0  0
    0.0000    0.0000    0.0000 H   0  0  0  0  0  0  0  0  0  0  0  0
    0.0000    0.0000    0.0000 H   0  0  0  0  0  0  0  0  0  0  0  0
    0.0000    0.0000    0.0000 H   0  0  0  0  0  0  0  0  0  0  0  0
    0.0000    0.0000    0.0000 H   0  0  0  0  0  0  0  0  0  0  0  0
    0.0000    0.0000    0.0000 H   0  0  0  0  0  0  0  0  0  0  0  0
    0.0000    0.0000    0.0000 H   0  0  0  0  0  0  0  0  0  0  0  0
    0.0000    0.0000    0.0000 H   0  0  0  0  0  0  0  0  0  0  0  0
    0.0000    0.0000    0.0000 H   0  0  0  0  0  0  0  0  0  0  0  0
    0.0000    0.0000    0.0000 H   0  0  0  0  0  0  0  0  0  0  0  0
  1 14  1  0
  1 19  1  0
  2 20  1  0
  2 25  1  0
  3 16  2  0
  4 22  1  0
  5 21  2  0
  6 22  2  0
 23  7  1  1
  8 14  1  0
  8 16  1  0
  8 17  1  0
 15  9  1  6
  9 21  1  0
 10 12  1  0
 10 25  1  0
 10 31  1  0
 11 13  1  0
 11 25  2  0
 12 13  2  0
 14 15  1  0
 15 16  1  0
 17 18  2  0
 17 22  1  0
 18 19  1  0
 18 20  1  0
 21 23  1  0
 23 24  1  0
 24 26  2  0
 24 27  1  0
 26 28  1  0
 27 29  2  0
 28 30  2  0
 29 30  1  0
  4 32  1  0
  7 33  1  0
  9 34  1  0
 14 35  1  6
 15 36  1  0
 19 37  1  0
 19 38  1  0
 20 39  1  0
 20 40  1  0
 23 41  1  0
 26 42  1  0
 27 43  1  0
 28 44  1  0
 29 45  1  0
 30 46  1  0
 31 47  1  0
 31 48  1  0
 31 49  1  0
M  END
>  <ALOGPS_LOGP>  (1) 
-0.05

>  <ALOGPS_LOGS>  (1) 
-2.90

>  <ALOGPS_SOLUBILITY>  (1) 
5.81e-01 g/l

>  <DATABASE_ID>  (1) 
DB01326

>  <DATABASE_NAME>  (1) 
drugbank

>  <DRUGBANK_ID>  (1) 
DB01326

>  <DRUG_GROUPS>  (1) 
approved; investigational

>  <EXACT_MASS>  (1) 
462.078009096

>  <FORMULA>  (1) 
C18H18N6O5S2

>  <GENERIC_NAME>  (1) 
Cefamandole

>  <INCHI_IDENTIFIER>  (1) 
InChI=1S/C18H18N6O5S2/c1-23-18(20-21-22-23)31-8-10-7-30-16-11(15(27)24(16)12(10)17(28)29)19-14(26)13(25)9-5-3-2-4-6-9/h2-6,11,13,16,25H,7-8H2,1H3,(H,19,26)(H,28,29)/t11-,13-,16-/m1/s1

>  <INCHI_KEY>  (1) 
OLVCFLKTBJRLHI-AXAPSJFSSA-N

>  <INTERNATIONAL_BRANDS>  (1) 
Kefadol; Kefandol; Mandokef; Mandol

>  <JCHEM_ACCEPTOR_COUNT>  (1) 
8

>  <JCHEM_AVERAGE_POLARIZABILITY>  (1) 
42.45169371935944

>  <JCHEM_BIOAVAILABILITY>  (1) 
1

>  <JCHEM_DONOR_COUNT>  (1) 
3

>  <JCHEM_FORMAL_CHARGE>  (1) 
0

>  <JCHEM_GHOSE_FILTER>  (1) 
1

>  <JCHEM_IUPAC>  (1) 
(6R,7R)-7-[(2R)-2-hydroxy-2-phenylacetamido]-3-{[(1-methyl-1H-1,2,3,4-tetrazol-5-yl)sulfanyl]methyl}-8-oxo-5-thia-1-azabicyclo[4.2.0]oct-2-ene-2-carboxylic acid

>  <JCHEM_LOGP>  (1) 
0.02708561566666722

>  <JCHEM_MDDR_LIKE_RULE>  (1) 
1

>  <JCHEM_NUMBER_OF_RINGS>  (1) 
4

>  <JCHEM_PHYSIOLOGICAL_CHARGE>  (1) 
-1

>  <JCHEM_PKA>  (1) 
11.254702823526518

>  <JCHEM_PKA_STRONGEST_ACIDIC>  (1) 
3.3241952909495636

>  <JCHEM_PKA_STRONGEST_BASIC>  (1) 
-1.7273081540177473

>  <JCHEM_POLAR_SURFACE_AREA>  (1) 
150.54000000000002

>  <JCHEM_REFRACTIVITY>  (1) 
126.6455

>  <JCHEM_ROTATABLE_BOND_COUNT>  (1) 
7

>  <JCHEM_RULE_OF_FIVE>  (1) 
1

>  <JCHEM_TRADITIONAL_IUPAC>  (1) 
cefamandole

>  <JCHEM_VEBER_RULE>  (1) 
0

>  <MOLECULAR_WEIGHT>  (1) 
462.503

>  <PRODUCTS>  (1) 
Mandol Add-vantage Inj 1gm/vial; Mandol Inj 1gm/amp; Mandol Inj 2gm/amp

>  <SMILES>  (1) 
[H][C@]12SCC(CSC3=NN=NN3C)=C(N1C(=O)[C@H]2NC(=O)[C@H](O)C1=CC=CC=C1)C(O)=O

>  <SYNONYMS>  (1) 
Cefadole

$$$$
