
     RDKit          2D

 57 58  0  0  1  0  0  0  0  0999 V2000
    7.4632   -1.8383    0.0000 O   0  0  0  0  0  0  0  0  0  0  0  0
    4.5880   -1.1744    0.0000 O   0  0  0  0  0  0  0  0  0  0  0  0
    5.1331    1.8471    0.0000 O   0  0  0  0  0  0  0  0  0  0  0  0
   11.6574   -3.3179    0.0000 O   0  0  0  0  0  0  0  0  0  0  0  0
   11.6574   -1.8888    0.0000 O   0  0  0  0  0  0  0  0  0  0  0  0
    6.6826   -0.7618    0.0000 C   0  0  0  0  0  0  0  0  0  0  0  0
    6.6826   -1.5869    0.0000 C   0  0  0  0  0  0  0  0  0  0  0  0
    5.8980   -0.5069    0.0000 C   0  0  0  0  0  0  0  0  0  0  0  0
    5.4130   -1.1744    0.0000 C   0  0  0  0  0  0  0  0  0  0  0  0
    5.8980   -1.8418    0.0000 C   0  0  0  0  0  0  0  0  0  0  0  0
    7.4632   -0.5105    0.0000 C   0  0  0  0  0  0  0  0  0  0  0  0
    7.9447   -1.1744    0.0000 C   0  0  0  0  0  0  0  0  0  0  0  0
    5.6429    0.2778    0.0000 C   0  0  0  0  0  0  0  0  0  0  0  0
    8.7698   -1.1744    0.0000 C   0  0  0  0  0  0  0  0  0  0  0  0
    4.8360    0.4493    0.0000 C   0  0  0  0  0  0  0  0  0  0  0  0
    4.5810    1.2339    0.0000 C   0  0  0  0  0  0  0  0  0  0  0  0
    9.1823   -1.8888    0.0000 C   0  0  0  0  0  0  0  0  0  0  0  0
    3.7740    1.4055    0.0000 C   0  0  0  0  0  0  0  0  0  0  0  0
   10.0073   -1.8888    0.0000 C   0  0  0  0  0  0  0  0  0  0  0  0
    3.5190    2.1902    0.0000 C   0  0  0  0  0  0  0  0  0  0  0  0
   10.4198   -2.6034    0.0000 C   0  0  0  0  0  0  0  0  0  0  0  0
    2.7121    2.3617    0.0000 C   0  0  0  0  0  0  0  0  0  0  0  0
    2.4571    3.1464    0.0000 C   0  0  0  0  0  0  0  0  0  0  0  0
   11.2449   -2.6034    0.0000 C   0  0  0  0  0  0  0  0  0  0  0  0
    1.6501    3.3179    0.0000 C   0  0  0  0  0  0  0  0  0  0  0  0
    0.0000    0.0000    0.0000 H   0  0  0  0  0  0  0  0  0  0  0  0
    0.0000    0.0000    0.0000 H   0  0  0  0  0  0  0  0  0  0  0  0
    0.0000    0.0000    0.0000 H   0  0  0  0  0  0  0  0  0  0  0  0
    0.0000    0.0000    0.0000 H   0  0  0  0  0  0  0  0  0  0  0  0
    0.0000    0.0000    0.0000 H   0  0  0  0  0  0  0  0  0  0  0  0
    0.0000    0.0000    0.0000 H   0  0  0  0  0  0  0  0  0  0  0  0
    0.0000    0.0000    0.0000 H   0  0  0  0  0  0  0  0  0  0  0  0
    0.0000    0.0000    0.0000 H   0  0  0  0  0  0  0  0  0  0  0  0
    0.0000    0.0000    0.0000 H   0  0  0  0  0  0  0  0  0  0  0  0
    0.0000    0.0000    0.0000 H   0  0  0  0  0  0  0  0  0  0  0  0
    0.0000    0.0000    0.0000 H   0  0  0  0  0  0  0  0  0  0  0  0
    0.0000    0.0000    0.0000 H   0  0  0  0  0  0  0  0  0  0  0  0
    0.0000    0.0000    0.0000 H   0  0  0  0  0  0  0  0  0  0  0  0
    0.0000    0.0000    0.0000 H   0  0  0  0  0  0  0  0  0  0  0  0
    0.0000    0.0000    0.0000 H   0  0  0  0  0  0  0  0  0  0  0  0
    0.0000    0.0000    0.0000 H   0  0  0  0  0  0  0  0  0  0  0  0
    0.0000    0.0000    0.0000 H   0  0  0  0  0  0  0  0  0  0  0  0
    0.0000    0.0000    0.0000 H   0  0  0  0  0  0  0  0  0  0  0  0
    0.0000    0.0000    0.0000 H   0  0  0  0  0  0  0  0  0  0  0  0
    0.0000    0.0000    0.0000 H   0  0  0  0  0  0  0  0  0  0  0  0
    0.0000    0.0000    0.0000 H   0  0  0  0  0  0  0  0  0  0  0  0
    0.0000    0.0000    0.0000 H   0  0  0  0  0  0  0  0  0  0  0  0
    0.0000    0.0000    0.0000 H   0  0  0  0  0  0  0  0  0  0  0  0
    0.0000    0.0000    0.0000 H   0  0  0  0  0  0  0  0  0  0  0  0
    0.0000    0.0000    0.0000 H   0  0  0  0  0  0  0  0  0  0  0  0
    0.0000    0.0000    0.0000 H   0  0  0  0  0  0  0  0  0  0  0  0
    0.0000    0.0000    0.0000 H   0  0  0  0  0  0  0  0  0  0  0  0
    0.0000    0.0000    0.0000 H   0  0  0  0  0  0  0  0  0  0  0  0
    0.0000    0.0000    0.0000 H   0  0  0  0  0  0  0  0  0  0  0  0
    0.0000    0.0000    0.0000 H   0  0  0  0  0  0  0  0  0  0  0  0
    0.0000    0.0000    0.0000 H   0  0  0  0  0  0  0  0  0  0  0  0
    0.0000    0.0000    0.0000 H   0  0  0  0  0  0  0  0  0  0  0  0
  1  7  1  0
  1 12  1  0
  9  2  1  1
 16  3  1  1
  4 24  1  0
  5 24  2  0
  6  7  1  0
  6  8  1  0
  6 11  1  0
  7 10  1  0
  8  9  1  0
  8 13  1  6
  9 10  1  0
 11 12  1  0
 12 14  2  3
 13 15  2  0
 14 17  1  0
 15 16  1  0
 16 18  1  0
 17 19  1  0
 18 20  1  0
 19 21  1  0
 20 22  1  0
 21 24  1  0
 22 23  1  0
 23 25  1  0
  2 26  1  0
  3 27  1  0
  4 28  1  0
  6 29  1  6
  7 30  1  6
  8 31  1  0
  9 32  1  0
 10 33  1  0
 10 34  1  0
 11 35  1  0
 11 36  1  0
 13 37  1  0
 14 38  1  0
 15 39  1  0
 16 40  1  0
 17 41  1  0
 17 42  1  0
 18 43  1  0
 18 44  1  0
 19 45  1  0
 19 46  1  0
 20 47  1  0
 20 48  1  0
 21 49  1  0
 21 50  1  0
 22 51  1  0
 22 52  1  0
 23 53  1  0
 23 54  1  0
 25 55  1  0
 25 56  1  0
 25 57  1  0
M  END
>  <ALOGPS_LOGP>  (1) 
3.83

>  <ALOGPS_LOGS>  (1) 
-3.41

>  <ALOGPS_SOLUBILITY>  (1) 
1.36e-01 g/l

>  <DATABASE_ID>  (1) 
DB01240

>  <DATABASE_NAME>  (1) 
drugbank

>  <DRUGBANK_ID>  (1) 
DB01240

>  <DRUG_GROUPS>  (1) 
approved

>  <EXACT_MASS>  (1) 
352.224974134

>  <FORMULA>  (1) 
C20H32O5

>  <GENERIC_NAME>  (1) 
Epoprostenol

>  <INCHI_IDENTIFIER>  (1) 
InChI=1S/C20H32O5/c1-2-3-4-7-14(21)10-11-16-17-12-15(8-5-6-9-20(23)24)25-19(17)13-18(16)22/h8,10-11,14,16-19,21-22H,2-7,9,12-13H2,1H3,(H,23,24)/b11-10+,15-8?/t14-,16+,17+,18+,19-/m0/s1

>  <INCHI_KEY>  (1) 
KAQKFAOMNZTLHT-VVUHWYTRSA-N

>  <JCHEM_ACCEPTOR_COUNT>  (1) 
5

>  <JCHEM_AVERAGE_POLARIZABILITY>  (1) 
41.616154263850845

>  <JCHEM_BIOAVAILABILITY>  (1) 
1

>  <JCHEM_DONOR_COUNT>  (1) 
3

>  <JCHEM_FORMAL_CHARGE>  (1) 
0

>  <JCHEM_GHOSE_FILTER>  (1) 
1

>  <JCHEM_IUPAC>  (1) 
5-[(3aR,4R,5R,6aS)-5-hydroxy-4-[(1E,3S)-3-hydroxyoct-1-en-1-yl]-hexahydro-2H-cyclopenta[b]furan-2-ylidene]pentanoic acid

>  <JCHEM_LOGP>  (1) 
2.415704516333332

>  <JCHEM_MDDR_LIKE_RULE>  (1) 
0

>  <JCHEM_NUMBER_OF_RINGS>  (1) 
2

>  <JCHEM_PHYSIOLOGICAL_CHARGE>  (1) 
-1

>  <JCHEM_PKA>  (1) 
14.796424142187195

>  <JCHEM_PKA_STRONGEST_ACIDIC>  (1) 
4.429290512385807

>  <JCHEM_PKA_STRONGEST_BASIC>  (1) 
-1.626006643085781

>  <JCHEM_POLAR_SURFACE_AREA>  (1) 
86.99000000000001

>  <JCHEM_REFRACTIVITY>  (1) 
99.0069

>  <JCHEM_ROTATABLE_BOND_COUNT>  (1) 
10

>  <JCHEM_RULE_OF_FIVE>  (1) 
1

>  <JCHEM_TRADITIONAL_IUPAC>  (1) 
epoprostenol

>  <JCHEM_VEBER_RULE>  (1) 
0

>  <MOLECULAR_WEIGHT>  (1) 
352.4651

>  <PRODUCTS>  (1) 
Caripul; Epoprostenol Sodium; Epoprostenol for Injection; Flolan; Veletri

>  <SALTS>  (1) 
Epoprostenol sodium

>  <SECONDARY_ACCESSION_NUMBERS>  (1) 
APRD00949

>  <SMILES>  (1) 
[H][C@]12C[C@@H](O)[C@H](\C=C\[C@@H](O)CCCCC)[C@@]1([H])CC(O2)=CCCCC(O)=O

>  <SYNONYMS>  (1) 
PGI2

$$$$
