1545
     RDKit          2D

 39 41  0  0  1  0  0  0  0  0999 V2000
    2.5467   -2.7925    0.0000 Cl  0  0  0  0  0  0  0  0  0  0  0  0
    3.6080   -1.8983    0.0000 F   0  0  0  0  0  0  0  0  0  0  0  0
    4.7038    1.9876    0.0000 O   0  0  0  0  0  0  0  0  0  0  0  0
    2.3403    1.9259    0.0000 O   0  0  0  0  0  0  0  0  0  0  0  0
    3.4164    2.6076    0.0000 O   0  0  0  0  0  0  0  0  0  0  0  0
    2.1839    0.5376    0.0000 N   0  0  0  0  0  0  0  0  0  0  0  0
    4.0375    0.5376    0.0000 N   0  0  0  0  0  0  0  0  0  0  0  0
    3.1107   -0.6247    0.0000 C   0  0  0  0  0  0  0  0  0  0  0  0
    3.8540   -0.2667    0.0000 C   0  0  0  0  0  0  0  0  0  0  0  0
    3.5232    1.1826    0.0000 C   0  0  0  0  0  0  0  0  0  0  0  0
    2.3674   -0.2667    0.0000 C   0  0  0  0  0  0  0  0  0  0  0  0
    4.4990   -0.7811    0.0000 C   0  0  0  0  0  0  0  0  0  0  0  0
    2.6982    1.1826    0.0000 C   0  0  0  0  0  0  0  0  0  0  0  0
    3.1881   -1.4805    0.0000 C   0  0  0  0  0  0  0  0  0  0  0  0
    1.6500   -0.7398    0.0000 C   0  0  0  0  0  0  0  0  0  0  0  0
    3.8811    1.9259    0.0000 C   0  0  0  0  0  0  0  0  0  0  0  0
    2.4818   -1.9701    0.0000 C   0  0  0  0  0  0  0  0  0  0  0  0
    1.7076   -1.5972    0.0000 C   0  0  0  0  0  0  0  0  0  0  0  0
    4.3760   -1.5969    0.0000 C   0  0  0  0  0  0  0  0  0  0  0  0
    5.2670   -0.4797    0.0000 C   0  0  0  0  0  0  0  0  0  0  0  0
    5.0210   -2.1113    0.0000 C   0  0  0  0  0  0  0  0  0  0  0  0
    5.9120   -0.9940    0.0000 C   0  0  0  0  0  0  0  0  0  0  0  0
    5.7890   -1.8099    0.0000 C   0  0  0  0  0  0  0  0  0  0  0  0
    5.0618    2.7308    0.0000 C   0  0  0  0  0  0  0  0  0  0  0  0
    5.8845    2.7925    0.0000 C   0  0  0  0  0  0  0  0  0  0  0  0
    0.0000    0.0000    0.0000 H   0  0  0  0  0  0  0  0  0  0  0  0
    0.0000    0.0000    0.0000 H   0  0  0  0  0  0  0  0  0  0  0  0
    0.0000    0.0000    0.0000 H   0  0  0  0  0  0  0  0  0  0  0  0
    0.0000    0.0000    0.0000 H   0  0  0  0  0  0  0  0  0  0  0  0
    0.0000    0.0000    0.0000 H   0  0  0  0  0  0  0  0  0  0  0  0
    0.0000    0.0000    0.0000 H   0  0  0  0  0  0  0  0  0  0  0  0
    0.0000    0.0000    0.0000 H   0  0  0  0  0  0  0  0  0  0  0  0
    0.0000    0.0000    0.0000 H   0  0  0  0  0  0  0  0  0  0  0  0
    0.0000    0.0000    0.0000 H   0  0  0  0  0  0  0  0  0  0  0  0
    0.0000    0.0000    0.0000 H   0  0  0  0  0  0  0  0  0  0  0  0
    0.0000    0.0000    0.0000 H   0  0  0  0  0  0  0  0  0  0  0  0
    0.0000    0.0000    0.0000 H   0  0  0  0  0  0  0  0  0  0  0  0
    0.0000    0.0000    0.0000 H   0  0  0  0  0  0  0  0  0  0  0  0
    0.0000    0.0000    0.0000 H   0  0  0  0  0  0  0  0  0  0  0  0
  1 17  1  0
  2 19  1  0
  3 16  1  0
  3 24  1  0
  4 13  2  0
  5 16  2  0
  6 11  1  0
  6 13  1  0
  7  9  2  0
  7 10  1  0
  8  9  1  0
  8 11  2  0
  8 14  1  0
  9 12  1  0
 10 13  1  0
 10 16  1  0
 11 15  1  0
 12 19  2  0
 12 20  1  0
 14 17  2  0
 15 18  2  0
 17 18  1  0
 19 21  1  0
 20 22  2  0
 21 23  2  0
 22 23  1  0
 24 25  1  0
  6 26  1  0
 10 27  1  0
 14 28  1  0
 15 29  1  0
 18 30  1  0
 20 31  1  0
 21 32  1  0
 22 33  1  0
 23 34  1  0
 24 35  1  0
 24 36  1  0
 25 37  1  0
 25 38  1  0
 25 39  1  0
M  END
>  <ALOGPS_LOGP>  (1) 
3.36

>  <ALOGPS_LOGS>  (1) 
-4.84

>  <ALOGPS_SOLUBILITY>  (1) 
5.25e-03 g/l

>  <DATABASE_ID>  (1) 
DB01545

>  <DATABASE_NAME>  (1) 
drugbank

>  <DRUGBANK_ID>  (1) 
DB01545

>  <DRUG_GROUPS>  (1) 
approved; illicit

>  <EXACT_MASS>  (1) 
360.067698236

>  <FORMULA>  (1) 
C18H14ClFN2O3

>  <GENERIC_NAME>  (1) 
Ethyl loflazepate

>  <INCHI_IDENTIFIER>  (1) 
InChI=1S/C18H14ClFN2O3/c1-2-25-18(24)16-17(23)21-14-8-7-10(19)9-12(14)15(22-16)11-5-3-4-6-13(11)20/h3-9,16H,2H2,1H3,(H,21,23)

>  <INCHI_KEY>  (1) 
CUCHJCMWNFEYOM-UHFFFAOYSA-N

>  <INTERNATIONAL_BRANDS>  (1) 
Azutolem; Bigson; Medetax; Meilax; Ronlax; Sukarnase; Victan

>  <JCHEM_ACCEPTOR_COUNT>  (1) 
3

>  <JCHEM_AVERAGE_POLARIZABILITY>  (1) 
35.025575609000455

>  <JCHEM_BIOAVAILABILITY>  (1) 
1

>  <JCHEM_DONOR_COUNT>  (1) 
1

>  <JCHEM_FORMAL_CHARGE>  (1) 
0

>  <JCHEM_GHOSE_FILTER>  (1) 
1

>  <JCHEM_IUPAC>  (1) 
ethyl 7-chloro-5-(2-fluorophenyl)-2-oxo-2,3-dihydro-1H-1,4-benzodiazepine-3-carboxylate

>  <JCHEM_LOGP>  (1) 
3.8517424769999993

>  <JCHEM_MDDR_LIKE_RULE>  (1) 
0

>  <JCHEM_NUMBER_OF_RINGS>  (1) 
3

>  <JCHEM_PHYSIOLOGICAL_CHARGE>  (1) 
0

>  <JCHEM_PKA>  (1) 
12.12226768398159

>  <JCHEM_PKA_STRONGEST_ACIDIC>  (1) 
9.514860842242816

>  <JCHEM_PKA_STRONGEST_BASIC>  (1) 
-1.4348767610344808

>  <JCHEM_POLAR_SURFACE_AREA>  (1) 
67.76

>  <JCHEM_REFRACTIVITY>  (1) 
92.41020000000003

>  <JCHEM_ROTATABLE_BOND_COUNT>  (1) 
4

>  <JCHEM_RULE_OF_FIVE>  (1) 
1

>  <JCHEM_TRADITIONAL_IUPAC>  (1) 
ethyl loflazepate

>  <JCHEM_VEBER_RULE>  (1) 
0

>  <MOLECULAR_WEIGHT>  (1) 
360.767

>  <SMILES>  (1) 
CCOC(=O)C1N=C(C2=CC=CC=C2F)C2=C(NC1=O)C=CC(Cl)=C2

$$$$
