1384
     RDKit          2D

 57 60  0  0  1  0  0  0  0  0999 V2000
    4.6603   -2.9528    0.0000 F   0  0  0  0  0  0  0  0  0  0  0  0
    6.6263    1.4409    0.0000 O   0  0  0  0  0  0  0  0  0  0  0  0
    3.9559    0.8169    0.0000 O   0  0  0  0  0  0  0  0  0  0  0  0
    8.3013    0.8027    0.0000 O   0  0  0  0  0  0  0  0  0  0  0  0
    8.1317    2.4440    0.0000 O   0  0  0  0  0  0  0  0  0  0  0  0
    1.6500   -2.1138    0.0000 O   0  0  0  0  0  0  0  0  0  0  0  0
    6.0993    0.4044    0.0000 C   0  0  0  0  0  0  0  0  0  0  0  0
    6.0993   -0.4206    0.0000 C   0  0  0  0  0  0  0  0  0  0  0  0
    5.3849   -0.8331    0.0000 C   0  0  0  0  0  0  0  0  0  0  0  0
    4.6703   -0.4206    0.0000 C   0  0  0  0  0  0  0  0  0  0  0  0
    6.8799    0.6558    0.0000 C   0  0  0  0  0  0  0  0  0  0  0  0
    6.8799   -0.6720    0.0000 C   0  0  0  0  0  0  0  0  0  0  0  0
    5.3849    0.8169    0.0000 C   0  0  0  0  0  0  0  0  0  0  0  0
    7.3614   -0.0081    0.0000 C   0  0  0  0  0  0  0  0  0  0  0  0
    4.6703    0.4044    0.0000 C   0  0  0  0  0  0  0  0  0  0  0  0
    3.9196   -0.8388    0.0000 C   0  0  0  0  0  0  0  0  0  0  0  0
    5.3981   -1.6923    0.0000 C   0  0  0  0  0  0  0  0  0  0  0  0
    6.0993    1.2294    0.0000 C   0  0  0  0  0  0  0  0  0  0  0  0
    4.6572   -2.1278    0.0000 C   0  0  0  0  0  0  0  0  0  0  0  0
    3.9130   -1.6981    0.0000 C   0  0  0  0  0  0  0  0  0  0  0  0
    7.5482    1.1396    0.0000 C   0  0  0  0  0  0  0  0  0  0  0  0
    8.1864   -0.0081    0.0000 C   0  0  0  0  0  0  0  0  0  0  0  0
    3.9259   -0.0138    0.0000 C   0  0  0  0  0  0  0  0  0  0  0  0
    3.1550   -0.3734    0.0000 C   0  0  0  0  0  0  0  0  0  0  0  0
    3.1413   -2.1516    0.0000 C   0  0  0  0  0  0  0  0  0  0  0  0
    7.4634    1.9602    0.0000 C   0  0  0  0  0  0  0  0  0  0  0  0
    2.3729   -0.8089    0.0000 C   0  0  0  0  0  0  0  0  0  0  0  0
    2.3660   -1.7040    0.0000 C   0  0  0  0  0  0  0  0  0  0  0  0
    0.0000    0.0000    0.0000 H   0  0  0  0  0  0  0  0  0  0  0  0
    0.0000    0.0000    0.0000 H   0  0  0  0  0  0  0  0  0  0  0  0
    0.0000    0.0000    0.0000 H   0  0  0  0  0  0  0  0  0  0  0  0
    0.0000    0.0000    0.0000 H   0  0  0  0  0  0  0  0  0  0  0  0
    0.0000    0.0000    0.0000 H   0  0  0  0  0  0  0  0  0  0  0  0
    0.0000    0.0000    0.0000 H   0  0  0  0  0  0  0  0  0  0  0  0
    0.0000    0.0000    0.0000 H   0  0  0  0  0  0  0  0  0  0  0  0
    0.0000    0.0000    0.0000 H   0  0  0  0  0  0  0  0  0  0  0  0
    0.0000    0.0000    0.0000 H   0  0  0  0  0  0  0  0  0  0  0  0
    0.0000    0.0000    0.0000 H   0  0  0  0  0  0  0  0  0  0  0  0
    0.0000    0.0000    0.0000 H   0  0  0  0  0  0  0  0  0  0  0  0
    0.0000    0.0000    0.0000 H   0  0  0  0  0  0  0  0  0  0  0  0
    0.0000    0.0000    0.0000 H   0  0  0  0  0  0  0  0  0  0  0  0
    0.0000    0.0000    0.0000 H   0  0  0  0  0  0  0  0  0  0  0  0
    0.0000    0.0000    0.0000 H   0  0  0  0  0  0  0  0  0  0  0  0
    0.0000    0.0000    0.0000 H   0  0  0  0  0  0  0  0  0  0  0  0
    0.0000    0.0000    0.0000 H   0  0  0  0  0  0  0  0  0  0  0  0
    0.0000    0.0000    0.0000 H   0  0  0  0  0  0  0  0  0  0  0  0
    0.0000    0.0000    0.0000 H   0  0  0  0  0  0  0  0  0  0  0  0
    0.0000    0.0000    0.0000 H   0  0  0  0  0  0  0  0  0  0  0  0
    0.0000    0.0000    0.0000 H   0  0  0  0  0  0  0  0  0  0  0  0
    0.0000    0.0000    0.0000 H   0  0  0  0  0  0  0  0  0  0  0  0
    0.0000    0.0000    0.0000 H   0  0  0  0  0  0  0  0  0  0  0  0
    0.0000    0.0000    0.0000 H   0  0  0  0  0  0  0  0  0  0  0  0
    0.0000    0.0000    0.0000 H   0  0  0  0  0  0  0  0  0  0  0  0
    0.0000    0.0000    0.0000 H   0  0  0  0  0  0  0  0  0  0  0  0
    0.0000    0.0000    0.0000 H   0  0  0  0  0  0  0  0  0  0  0  0
    0.0000    0.0000    0.0000 H   0  0  0  0  0  0  0  0  0  0  0  0
    0.0000    0.0000    0.0000 H   0  0  0  0  0  0  0  0  0  0  0  0
 19  1  1  6
 11  2  1  6
 15  3  1  1
  4 21  2  0
  5 26  1  0
  6 28  2  0
  7  8  1  0
  7 11  1  0
  7 13  1  0
  7 18  1  1
  8  9  1  0
  8 12  1  0
  9 10  1  0
  9 17  1  0
 10 15  1  0
 10 16  1  0
 11 14  1  0
 11 21  1  0
 12 14  1  0
 13 15  1  0
 14 22  1  1
 16 20  1  0
 16 23  1  1
 16 24  1  0
 17 19  1  0
 19 20  1  0
 20 25  2  0
 21 26  1  0
 24 27  2  0
 25 28  1  0
 27 28  1  0
  2 29  1  0
  3 30  1  0
  5 31  1  0
  8 32  1  6
  9 33  1  1
 10 34  1  6
 12 35  1  0
 12 36  1  0
 13 37  1  0
 13 38  1  0
 14 39  1  0
 15 40  1  0
 17 41  1  0
 17 42  1  0
 18 43  1  0
 18 44  1  0
 18 45  1  0
 19 46  1  0
 22 47  1  0
 22 48  1  0
 22 49  1  0
 23 50  1  0
 23 51  1  0
 23 52  1  0
 24 53  1  0
 25 54  1  0
 26 55  1  0
 26 56  1  0
 27 57  1  0
M  END
>  <ALOGPS_LOGP>  (1) 
1.51

>  <ALOGPS_LOGS>  (1) 
-3.43

>  <ALOGPS_SOLUBILITY>  (1) 
1.45e-01 g/l

>  <DATABASE_ID>  (1) 
DB01384

>  <DATABASE_NAME>  (1) 
drugbank

>  <DRUGBANK_ID>  (1) 
DB01384

>  <DRUG_GROUPS>  (1) 
approved

>  <EXACT_MASS>  (1) 
392.199902243

>  <FORMULA>  (1) 
C22H29FO5

>  <GENERIC_NAME>  (1) 
Paramethasone

>  <INCHI_IDENTIFIER>  (1) 
InChI=1S/C22H29FO5/c1-11-6-14-13-8-16(23)15-7-12(25)4-5-20(15,2)19(13)17(26)9-21(14,3)22(11,28)18(27)10-24/h4-5,7,11,13-14,16-17,19,24,26,28H,6,8-10H2,1-3H3/t11-,13+,14+,16+,17+,19-,20+,21+,22+/m1/s1

>  <INCHI_KEY>  (1) 
MKPDWECBUAZOHP-AFYJWTTESA-N

>  <JCHEM_ACCEPTOR_COUNT>  (1) 
5

>  <JCHEM_AVERAGE_POLARIZABILITY>  (1) 
40.839444860748365

>  <JCHEM_BIOAVAILABILITY>  (1) 
1

>  <JCHEM_DONOR_COUNT>  (1) 
3

>  <JCHEM_FORMAL_CHARGE>  (1) 
0

>  <JCHEM_GHOSE_FILTER>  (1) 
1

>  <JCHEM_IUPAC>  (1) 
(1S,2R,8S,10S,11S,13R,14R,15S,17S)-8-fluoro-14,17-dihydroxy-14-(2-hydroxyacetyl)-2,13,15-trimethyltetracyclo[8.7.0.0²,⁷.0¹¹,¹⁵]heptadeca-3,6-dien-5-one

>  <JCHEM_LOGP>  (1) 
1.298243457666665

>  <JCHEM_MDDR_LIKE_RULE>  (1) 
0

>  <JCHEM_NUMBER_OF_RINGS>  (1) 
4

>  <JCHEM_PHYSIOLOGICAL_CHARGE>  (1) 
0

>  <JCHEM_PKA>  (1) 
13.835536418093941

>  <JCHEM_PKA_STRONGEST_ACIDIC>  (1) 
12.44874209098261

>  <JCHEM_PKA_STRONGEST_BASIC>  (1) 
-2.851477700279718

>  <JCHEM_POLAR_SURFACE_AREA>  (1) 
94.83000000000001

>  <JCHEM_REFRACTIVITY>  (1) 
102.78829999999998

>  <JCHEM_ROTATABLE_BOND_COUNT>  (1) 
2

>  <JCHEM_RULE_OF_FIVE>  (1) 
1

>  <JCHEM_TRADITIONAL_IUPAC>  (1) 
paramethasone

>  <JCHEM_VEBER_RULE>  (1) 
0

>  <MOLECULAR_WEIGHT>  (1) 
392.4611

>  <SALTS>  (1) 
Paramethasone acetate

>  <SMILES>  (1) 
[H][C@@]12C[C@@H](C)[C@](O)(C(=O)CO)[C@@]1(C)C[C@H](O)[C@@]1([H])[C@@]2([H])C[C@]([H])(F)C2=CC(=O)C=C[C@]12C

$$$$
