1136
     RDKit          2D

 56 59  0  0  1  0  0  0  0  0999 V2000
    4.4487    1.9787    0.0000 O   0  0  0  0  0  0  0  0  0  0  0  0
    3.9207    0.4155    0.0000 O   0  0  0  0  0  0  0  0  0  0  0  0
    5.8364   -2.8440    0.0000 O   0  0  0  0  0  0  0  0  0  0  0  0
    4.2186   -3.1683    0.0000 O   0  0  0  0  0  0  0  0  0  0  0  0
    3.7352    4.6773    0.0000 N   0  0  0  0  0  0  0  0  0  0  0  0
    5.0106   -0.8234    0.0000 N   0  0  0  0  0  0  0  0  0  0  0  0
    4.1477    3.4078    0.0000 C   0  0  0  0  0  0  0  0  0  0  0  0
    3.3227    3.4078    0.0000 C   0  0  0  0  0  0  0  0  0  0  0  0
    4.4026    4.1924    0.0000 C   0  0  0  0  0  0  0  0  0  0  0  0
    3.0676    4.1924    0.0000 C   0  0  0  0  0  0  0  0  0  0  0  0
    4.7127    2.7603    0.0000 C   0  0  0  0  0  0  0  0  0  0  0  0
    4.7296    0.5777    0.0000 C   0  0  0  0  0  0  0  0  0  0  0  0
    4.9936    1.3593    0.0000 C   0  0  0  0  0  0  0  0  0  0  0  0
    5.2746   -0.0418    0.0000 C   0  0  0  0  0  0  0  0  0  0  0  0
    5.2403    4.3840    0.0000 C   0  0  0  0  0  0  0  0  0  0  0  0
    2.7575    2.7603    0.0000 C   0  0  0  0  0  0  0  0  0  0  0  0
    5.5547    2.9326    0.0000 C   0  0  0  0  0  0  0  0  0  0  0  0
    2.2299    4.3840    0.0000 C   0  0  0  0  0  0  0  0  0  0  0  0
    5.8202    3.7499    0.0000 C   0  0  0  0  0  0  0  0  0  0  0  0
    5.5555   -1.4429    0.0000 C   0  0  0  0  0  0  0  0  0  0  0  0
    1.9156    2.9326    0.0000 C   0  0  0  0  0  0  0  0  0  0  0  0
    1.6500    3.7499    0.0000 C   0  0  0  0  0  0  0  0  0  0  0  0
    5.2915   -2.2245    0.0000 C   0  0  0  0  0  0  0  0  0  0  0  0
    5.5724   -3.6256    0.0000 C   0  0  0  0  0  0  0  0  0  0  0  0
    4.7635   -3.7878    0.0000 C   0  0  0  0  0  0  0  0  0  0  0  0
    6.1173   -4.2450    0.0000 C   0  0  0  0  0  0  0  0  0  0  0  0
    4.4995   -4.5694    0.0000 C   0  0  0  0  0  0  0  0  0  0  0  0
    5.8533   -5.0266    0.0000 C   0  0  0  0  0  0  0  0  0  0  0  0
    5.0444   -5.1888    0.0000 C   0  0  0  0  0  0  0  0  0  0  0  0
    3.4097   -3.3305    0.0000 C   0  0  0  0  0  0  0  0  0  0  0  0
    0.0000    0.0000    0.0000 H   0  0  0  0  0  0  0  0  0  0  0  0
    0.0000    0.0000    0.0000 H   0  0  0  0  0  0  0  0  0  0  0  0
    0.0000    0.0000    0.0000 H   0  0  0  0  0  0  0  0  0  0  0  0
    0.0000    0.0000    0.0000 H   0  0  0  0  0  0  0  0  0  0  0  0
    0.0000    0.0000    0.0000 H   0  0  0  0  0  0  0  0  0  0  0  0
    0.0000    0.0000    0.0000 H   0  0  0  0  0  0  0  0  0  0  0  0
    0.0000    0.0000    0.0000 H   0  0  0  0  0  0  0  0  0  0  0  0
    0.0000    0.0000    0.0000 H   0  0  0  0  0  0  0  0  0  0  0  0
    0.0000    0.0000    0.0000 H   0  0  0  0  0  0  0  0  0  0  0  0
    0.0000    0.0000    0.0000 H   0  0  0  0  0  0  0  0  0  0  0  0
    0.0000    0.0000    0.0000 H   0  0  0  0  0  0  0  0  0  0  0  0
    0.0000    0.0000    0.0000 H   0  0  0  0  0  0  0  0  0  0  0  0
    0.0000    0.0000    0.0000 H   0  0  0  0  0  0  0  0  0  0  0  0
    0.0000    0.0000    0.0000 H   0  0  0  0  0  0  0  0  0  0  0  0
    0.0000    0.0000    0.0000 H   0  0  0  0  0  0  0  0  0  0  0  0
    0.0000    0.0000    0.0000 H   0  0  0  0  0  0  0  0  0  0  0  0
    0.0000    0.0000    0.0000 H   0  0  0  0  0  0  0  0  0  0  0  0
    0.0000    0.0000    0.0000 H   0  0  0  0  0  0  0  0  0  0  0  0
    0.0000    0.0000    0.0000 H   0  0  0  0  0  0  0  0  0  0  0  0
    0.0000    0.0000    0.0000 H   0  0  0  0  0  0  0  0  0  0  0  0
    0.0000    0.0000    0.0000 H   0  0  0  0  0  0  0  0  0  0  0  0
    0.0000    0.0000    0.0000 H   0  0  0  0  0  0  0  0  0  0  0  0
    0.0000    0.0000    0.0000 H   0  0  0  0  0  0  0  0  0  0  0  0
    0.0000    0.0000    0.0000 H   0  0  0  0  0  0  0  0  0  0  0  0
    0.0000    0.0000    0.0000 H   0  0  0  0  0  0  0  0  0  0  0  0
    0.0000    0.0000    0.0000 H   0  0  0  0  0  0  0  0  0  0  0  0
  1 11  1  0
  1 13  1  0
  2 12  1  0
  3 23  1  0
  3 24  1  0
  4 25  1  0
  4 30  1  0
  5  9  1  0
  5 10  1  0
  6 14  1  0
  6 20  1  0
  7  8  1  0
  7  9  2  0
  7 11  1  0
  8 10  2  0
  8 16  1  0
  9 15  1  0
 10 18  1  0
 11 17  2  0
 12 13  1  0
 12 14  1  0
 15 19  2  0
 16 21  2  0
 17 19  1  0
 18 22  2  0
 20 23  1  0
 21 22  1  0
 24 25  2  0
 24 26  1  0
 25 27  1  0
 26 28  2  0
 27 29  2  0
 28 29  1  0
  2 31  1  0
  5 32  1  0
  6 33  1  0
 12 34  1  0
 13 35  1  0
 13 36  1  0
 14 37  1  0
 14 38  1  0
 15 39  1  0
 16 40  1  0
 17 41  1  0
 18 42  1  0
 19 43  1  0
 20 44  1  0
 20 45  1  0
 21 46  1  0
 22 47  1  0
 23 48  1  0
 23 49  1  0
 26 50  1  0
 27 51  1  0
 28 52  1  0
 29 53  1  0
 30 54  1  0
 30 55  1  0
 30 56  1  0
M  END
>  <ALOGPS_LOGP>  (1) 
3.05

>  <ALOGPS_LOGS>  (1) 
-4.96

>  <ALOGPS_SOLUBILITY>  (1) 
4.44e-03 g/l

>  <DATABASE_ID>  (1) 
DB01136

>  <DATABASE_NAME>  (1) 
drugbank

>  <DRUGBANK_ID>  (1) 
DB01136

>  <DRUG_GROUPS>  (1) 
approved; investigational

>  <EXACT_MASS>  (1) 
406.18925733

>  <FORMULA>  (1) 
C24H26N2O4

>  <GENERIC_NAME>  (1) 
Carvedilol

>  <INCHI_IDENTIFIER>  (1) 
InChI=1S/C24H26N2O4/c1-28-21-10-4-5-11-22(21)29-14-13-25-15-17(27)16-30-23-12-6-9-20-24(23)18-7-2-3-8-19(18)26-20/h2-12,17,25-27H,13-16H2,1H3

>  <INCHI_KEY>  (1) 
OGHNVEJMJSYVRP-UHFFFAOYSA-N

>  <INTERNATIONAL_BRANDS>  (1) 
COREGCR

>  <JCHEM_ACCEPTOR_COUNT>  (1) 
5

>  <JCHEM_AVERAGE_POLARIZABILITY>  (1) 
45.03274967939157

>  <JCHEM_BIOAVAILABILITY>  (1) 
1

>  <JCHEM_DONOR_COUNT>  (1) 
3

>  <JCHEM_FORMAL_CHARGE>  (1) 
0

>  <JCHEM_GHOSE_FILTER>  (1) 
1

>  <JCHEM_IUPAC>  (1) 
1-(9H-carbazol-4-yloxy)-3-{[2-(2-methoxyphenoxy)ethyl]amino}propan-2-ol

>  <JCHEM_LOGP>  (1) 
3.424854408

>  <JCHEM_MDDR_LIKE_RULE>  (1) 
1

>  <JCHEM_NUMBER_OF_RINGS>  (1) 
4

>  <JCHEM_PHYSIOLOGICAL_CHARGE>  (1) 
1

>  <JCHEM_PKA>  (1) 
15.002539856351024

>  <JCHEM_PKA_STRONGEST_ACIDIC>  (1) 
14.03043132112937

>  <JCHEM_PKA_STRONGEST_BASIC>  (1) 
8.741556967442913

>  <JCHEM_POLAR_SURFACE_AREA>  (1) 
75.74

>  <JCHEM_REFRACTIVITY>  (1) 
115.63770000000002

>  <JCHEM_ROTATABLE_BOND_COUNT>  (1) 
10

>  <JCHEM_RULE_OF_FIVE>  (1) 
1

>  <JCHEM_TRADITIONAL_IUPAC>  (1) 
1-(9H-carbazol-4-yloxy)-3-{[2-(2-methoxyphenoxy)ethyl]amino}propan-2-ol

>  <JCHEM_VEBER_RULE>  (1) 
0

>  <MOLECULAR_WEIGHT>  (1) 
406.4742

>  <PRODUCTS>  (1) 
Apo-carvedilol; Auro-carvedilol; Ava-carvedilol; Carvedilol; Carvedilol Phosphate; Coreg; Coreg (carvedilol) Tablets, 12.5mg; Coreg (carvedilol) Tablets, 25mg; Coreg (carvedilol) Tablets, 3.125 mg; Coreg (carvedilol) Tablets, 6.25mg; Coreg 12.5mg; Coreg 25mg; Coreg 3.125mg; Coreg 6.25mg; Coreg CR; Coregcr CR; Dilatrend - Tab 25mg; Dilatrend - Tab 50mg; Dom-carvedilol; Hypertenevide-12.5; Jamp-carvedilol; Mylan-carvedilol; Novo-carvedilol Tablets; Ntp-carvedilol; Nu-carvedilol; PMS-carvedilol; Ran-carvedilol; Ratio-carvedilol; Zym-carvedilol

>  <SALTS>  (1) 
Carvedilol phosphate

>  <SECONDARY_ACCESSION_NUMBERS>  (1) 
APRD00091

>  <SMILES>  (1) 
COC1=CC=CC=C1OCCNCC(O)COC1=CC=CC2=C1C1=CC=CC=C1N2

>  <SYNONYMS>  (1) 
Carvedilolum

$$$$
