1621
     RDKit          2D

 65 68  0  0  0  0  0  0  0  0999 V2000
    5.9361   -3.5410    0.0000 S   0  0  0  0  0  0  0  0  0  0  0  0
    8.8480   -1.8712    0.0000 S   0  0  0  0  0  0  0  0  0  0  0  0
    1.6498    3.0581    0.0000 O   0  0  0  0  0  0  0  0  0  0  0  0
    8.4328   -1.1584    0.0000 O   0  0  0  0  0  0  0  0  0  0  0  0
    9.2631   -2.5840    0.0000 O   0  0  0  0  0  0  0  0  0  0  0  0
    4.5073    0.5834    0.0000 N   0  0  0  0  0  0  0  0  0  0  0  0
    5.9361   -1.8912    0.0000 N   0  0  0  0  0  0  0  0  0  0  0  0
    9.5608   -1.4561    0.0000 N   0  0  0  0  0  0  0  0  0  0  0  0
    3.0786    1.4083    0.0000 C   0  0  0  0  0  0  0  0  0  0  0  0
    3.7929    1.8208    0.0000 C   0  0  0  0  0  0  0  0  0  0  0  0
    3.0786    0.5834    0.0000 C   0  0  0  0  0  0  0  0  0  0  0  0
    4.5073    1.4083    0.0000 C   0  0  0  0  0  0  0  0  0  0  0  0
    3.7929    0.1710    0.0000 C   0  0  0  0  0  0  0  0  0  0  0  0
    2.3641    1.8208    0.0000 C   0  0  0  0  0  0  0  0  0  0  0  0
    5.2216    0.1710    0.0000 C   0  0  0  0  0  0  0  0  0  0  0  0
    5.2216   -0.6539    0.0000 C   0  0  0  0  0  0  0  0  0  0  0  0
    2.3641    2.6456    0.0000 C   0  0  0  0  0  0  0  0  0  0  0  0
    5.9361   -1.0664    0.0000 C   0  0  0  0  0  0  0  0  0  0  0  0
    6.6504   -2.3037    0.0000 C   0  0  0  0  0  0  0  0  0  0  0  0
    5.2216   -2.3037    0.0000 C   0  0  0  0  0  0  0  0  0  0  0  0
    6.6504   -3.1286    0.0000 C   0  0  0  0  0  0  0  0  0  0  0  0
    5.2216   -3.1286    0.0000 C   0  0  0  0  0  0  0  0  0  0  0  0
    7.3878   -1.8626    0.0000 C   0  0  0  0  0  0  0  0  0  0  0  0
    8.1352   -2.2865    0.0000 C   0  0  0  0  0  0  0  0  0  0  0  0
    4.4843   -1.8626    0.0000 C   0  0  0  0  0  0  0  0  0  0  0  0
    7.3878   -3.5695    0.0000 C   0  0  0  0  0  0  0  0  0  0  0  0
    8.1352   -3.1457    0.0000 C   0  0  0  0  0  0  0  0  0  0  0  0
    4.4843   -3.5695    0.0000 C   0  0  0  0  0  0  0  0  0  0  0  0
    3.7368   -2.2865    0.0000 C   0  0  0  0  0  0  0  0  0  0  0  0
    3.7368   -3.1457    0.0000 C   0  0  0  0  0  0  0  0  0  0  0  0
   10.2767   -1.8657    0.0000 C   0  0  0  0  0  0  0  0  0  0  0  0
    9.5576   -0.6312    0.0000 C   0  0  0  0  0  0  0  0  0  0  0  0
    0.0000    0.0000    0.0000 H   0  0  0  0  0  0  0  0  0  0  0  0
    0.0000    0.0000    0.0000 H   0  0  0  0  0  0  0  0  0  0  0  0
    0.0000    0.0000    0.0000 H   0  0  0  0  0  0  0  0  0  0  0  0
    0.0000    0.0000    0.0000 H   0  0  0  0  0  0  0  0  0  0  0  0
    0.0000    0.0000    0.0000 H   0  0  0  0  0  0  0  0  0  0  0  0
    0.0000    0.0000    0.0000 H   0  0  0  0  0  0  0  0  0  0  0  0
    0.0000    0.0000    0.0000 H   0  0  0  0  0  0  0  0  0  0  0  0
    0.0000    0.0000    0.0000 H   0  0  0  0  0  0  0  0  0  0  0  0
    0.0000    0.0000    0.0000 H   0  0  0  0  0  0  0  0  0  0  0  0
    0.0000    0.0000    0.0000 H   0  0  0  0  0  0  0  0  0  0  0  0
    0.0000    0.0000    0.0000 H   0  0  0  0  0  0  0  0  0  0  0  0
    0.0000    0.0000    0.0000 H   0  0  0  0  0  0  0  0  0  0  0  0
    0.0000    0.0000    0.0000 H   0  0  0  0  0  0  0  0  0  0  0  0
    0.0000    0.0000    0.0000 H   0  0  0  0  0  0  0  0  0  0  0  0
    0.0000    0.0000    0.0000 H   0  0  0  0  0  0  0  0  0  0  0  0
    0.0000    0.0000    0.0000 H   0  0  0  0  0  0  0  0  0  0  0  0
    0.0000    0.0000    0.0000 H   0  0  0  0  0  0  0  0  0  0  0  0
    0.0000    0.0000    0.0000 H   0  0  0  0  0  0  0  0  0  0  0  0
    0.0000    0.0000    0.0000 H   0  0  0  0  0  0  0  0  0  0  0  0
    0.0000    0.0000    0.0000 H   0  0  0  0  0  0  0  0  0  0  0  0
    0.0000    0.0000    0.0000 H   0  0  0  0  0  0  0  0  0  0  0  0
    0.0000    0.0000    0.0000 H   0  0  0  0  0  0  0  0  0  0  0  0
    0.0000    0.0000    0.0000 H   0  0  0  0  0  0  0  0  0  0  0  0
    0.0000    0.0000    0.0000 H   0  0  0  0  0  0  0  0  0  0  0  0
    0.0000    0.0000    0.0000 H   0  0  0  0  0  0  0  0  0  0  0  0
    0.0000    0.0000    0.0000 H   0  0  0  0  0  0  0  0  0  0  0  0
    0.0000    0.0000    0.0000 H   0  0  0  0  0  0  0  0  0  0  0  0
    0.0000    0.0000    0.0000 H   0  0  0  0  0  0  0  0  0  0  0  0
    0.0000    0.0000    0.0000 H   0  0  0  0  0  0  0  0  0  0  0  0
    0.0000    0.0000    0.0000 H   0  0  0  0  0  0  0  0  0  0  0  0
    0.0000    0.0000    0.0000 H   0  0  0  0  0  0  0  0  0  0  0  0
    0.0000    0.0000    0.0000 H   0  0  0  0  0  0  0  0  0  0  0  0
    0.0000    0.0000    0.0000 H   0  0  0  0  0  0  0  0  0  0  0  0
  1 21  1  0
  1 22  1  0
  2  4  2  0
  2  5  2  0
  2  8  1  0
  2 24  1  0
  3 17  1  0
  6 12  1  0
  6 13  1  0
  6 15  1  0
  7 18  1  0
  7 19  1  0
  7 20  1  0
  8 31  1  0
  8 32  1  0
  9 10  1  0
  9 11  1  0
  9 14  1  0
 10 12  1  0
 11 13  1  0
 14 17  1  0
 15 16  1  0
 16 18  1  0
 19 21  2  0
 19 23  1  0
 20 22  2  0
 20 25  1  0
 21 26  1  0
 22 28  1  0
 23 24  2  0
 24 27  1  0
 25 29  2  0
 26 27  2  0
 28 30  2  0
 29 30  1  0
  3 33  1  0
  9 34  1  0
 10 35  1  0
 10 36  1  0
 11 37  1  0
 11 38  1  0
 12 39  1  0
 12 40  1  0
 13 41  1  0
 13 42  1  0
 14 43  1  0
 14 44  1  0
 15 45  1  0
 15 46  1  0
 16 47  1  0
 16 48  1  0
 17 49  1  0
 17 50  1  0
 18 51  1  0
 18 52  1  0
 23 53  1  0
 25 54  1  0
 26 55  1  0
 27 56  1  0
 28 57  1  0
 29 58  1  0
 30 59  1  0
 31 60  1  0
 31 61  1  0
 31 62  1  0
 32 63  1  0
 32 64  1  0
 32 65  1  0
M  END
>  <ALOGPS_LOGP>  (1) 
3.94

>  <ALOGPS_LOGS>  (1) 
-4.57

>  <ALOGPS_SOLUBILITY>  (1) 
1.27e-02 g/l

>  <DATABASE_ID>  (1) 
DB01621

>  <DATABASE_NAME>  (1) 
drugbank

>  <DRUGBANK_ID>  (1) 
DB01621

>  <DRUG_GROUPS>  (1) 
approved; investigational

>  <EXACT_MASS>  (1) 
475.196333317

>  <FORMULA>  (1) 
C24H33N3O3S2

>  <GENERIC_NAME>  (1) 
Pipotiazine

>  <INCHI_IDENTIFIER>  (1) 
InChI=1S/C24H33N3O3S2/c1-25(2)32(29,30)20-8-9-24-22(18-20)27(21-6-3-4-7-23(21)31-24)14-5-13-26-15-10-19(11-16-26)12-17-28/h3-4,6-9,18-19,28H,5,10-17H2,1-2H3

>  <INCHI_KEY>  (1) 
JOMHSQGEWSNUKU-UHFFFAOYSA-N

>  <JCHEM_ACCEPTOR_COUNT>  (1) 
5

>  <JCHEM_AVERAGE_POLARIZABILITY>  (1) 
53.17447112792491

>  <JCHEM_BIOAVAILABILITY>  (1) 
1

>  <JCHEM_DONOR_COUNT>  (1) 
1

>  <JCHEM_FORMAL_CHARGE>  (1) 
0

>  <JCHEM_GHOSE_FILTER>  (1) 
0

>  <JCHEM_IUPAC>  (1) 
10-{3-[4-(2-hydroxyethyl)piperidin-1-yl]propyl}-N,N-dimethyl-10H-phenothiazine-2-sulfonamide

>  <JCHEM_LOGP>  (1) 
3.1296137433333326

>  <JCHEM_MDDR_LIKE_RULE>  (1) 
1

>  <JCHEM_NUMBER_OF_RINGS>  (1) 
4

>  <JCHEM_PHYSIOLOGICAL_CHARGE>  (1) 
1

>  <JCHEM_PKA_STRONGEST_ACIDIC>  (1) 
17.086569164709193

>  <JCHEM_PKA_STRONGEST_BASIC>  (1) 
8.857536507071535

>  <JCHEM_POLAR_SURFACE_AREA>  (1) 
64.09

>  <JCHEM_REFRACTIVITY>  (1) 
134.1231

>  <JCHEM_ROTATABLE_BOND_COUNT>  (1) 
7

>  <JCHEM_RULE_OF_FIVE>  (1) 
1

>  <JCHEM_TRADITIONAL_IUPAC>  (1) 
pipotiazine

>  <JCHEM_VEBER_RULE>  (1) 
0

>  <MOLECULAR_WEIGHT>  (1) 
475.667

>  <PRODUCTS>  (1) 
Piportil L4

>  <SALTS>  (1) 
Pipotiazine palmitate

>  <SMILES>  (1) 
CN(C)S(=O)(=O)C1=CC2=C(SC3=CC=CC=C3N2CCCN2CCC(CCO)CC2)C=C1

>  <SYNONYMS>  (1) 
Piportil; Pipothiazine; Pipotiazina; Pipotiazinum

$$$$
