1090
     RDKit          2D

 49 50  0  0  0  0  0  0  0  0999 V2000
    6.7861    0.6406    0.0000 N   0  0  0  0  0  0  0  0  0  0  0  0
    2.8696   -1.1032    0.0000 N   0  0  0  0  0  0  0  0  0  0  0  0
    6.1186    1.1255    0.0000 C   0  0  0  0  0  0  0  0  0  0  0  0
    7.4535    1.1255    0.0000 C   0  0  0  0  0  0  0  0  0  0  0  0
    2.0626   -1.2747    0.0000 C   0  0  0  0  0  0  0  0  0  0  0  0
    2.9559   -0.2827    0.0000 C   0  0  0  0  0  0  0  0  0  0  0  0
    6.3011   -0.0269    0.0000 C   0  0  0  0  0  0  0  0  0  0  0  0
    3.6902   -1.1894    0.0000 C   0  0  0  0  0  0  0  0  0  0  0  0
    6.3736    1.9101    0.0000 C   0  0  0  0  0  0  0  0  0  0  0  0
    7.1986    1.9101    0.0000 C   0  0  0  0  0  0  0  0  0  0  0  0
    1.6501   -0.5602    0.0000 C   0  0  0  0  0  0  0  0  0  0  0  0
    2.2021    0.0530    0.0000 C   0  0  0  0  0  0  0  0  0  0  0  0
    5.4806    0.0593    0.0000 C   0  0  0  0  0  0  0  0  0  0  0  0
    4.1751   -0.5219    0.0000 C   0  0  0  0  0  0  0  0  0  0  0  0
    4.9956   -0.6081    0.0000 C   0  0  0  0  0  0  0  0  0  0  0  0
    7.2710   -0.0269    0.0000 C   0  0  0  0  0  0  0  0  0  0  0  0
    3.0412   -1.9101    0.0000 C   0  0  0  0  0  0  0  0  0  0  0  0
    0.0000    0.0000    0.0000 H   0  0  0  0  0  0  0  0  0  0  0  0
    0.0000    0.0000    0.0000 H   0  0  0  0  0  0  0  0  0  0  0  0
    0.0000    0.0000    0.0000 H   0  0  0  0  0  0  0  0  0  0  0  0
    0.0000    0.0000    0.0000 H   0  0  0  0  0  0  0  0  0  0  0  0
    0.0000    0.0000    0.0000 H   0  0  0  0  0  0  0  0  0  0  0  0
    0.0000    0.0000    0.0000 H   0  0  0  0  0  0  0  0  0  0  0  0
    0.0000    0.0000    0.0000 H   0  0  0  0  0  0  0  0  0  0  0  0
    0.0000    0.0000    0.0000 H   0  0  0  0  0  0  0  0  0  0  0  0
    0.0000    0.0000    0.0000 H   0  0  0  0  0  0  0  0  0  0  0  0
    0.0000    0.0000    0.0000 H   0  0  0  0  0  0  0  0  0  0  0  0
    0.0000    0.0000    0.0000 H   0  0  0  0  0  0  0  0  0  0  0  0
    0.0000    0.0000    0.0000 H   0  0  0  0  0  0  0  0  0  0  0  0
    0.0000    0.0000    0.0000 H   0  0  0  0  0  0  0  0  0  0  0  0
    0.0000    0.0000    0.0000 H   0  0  0  0  0  0  0  0  0  0  0  0
    0.0000    0.0000    0.0000 H   0  0  0  0  0  0  0  0  0  0  0  0
    0.0000    0.0000    0.0000 H   0  0  0  0  0  0  0  0  0  0  0  0
    0.0000    0.0000    0.0000 H   0  0  0  0  0  0  0  0  0  0  0  0
    0.0000    0.0000    0.0000 H   0  0  0  0  0  0  0  0  0  0  0  0
    0.0000    0.0000    0.0000 H   0  0  0  0  0  0  0  0  0  0  0  0
    0.0000    0.0000    0.0000 H   0  0  0  0  0  0  0  0  0  0  0  0
    0.0000    0.0000    0.0000 H   0  0  0  0  0  0  0  0  0  0  0  0
    0.0000    0.0000    0.0000 H   0  0  0  0  0  0  0  0  0  0  0  0
    0.0000    0.0000    0.0000 H   0  0  0  0  0  0  0  0  0  0  0  0
    0.0000    0.0000    0.0000 H   0  0  0  0  0  0  0  0  0  0  0  0
    0.0000    0.0000    0.0000 H   0  0  0  0  0  0  0  0  0  0  0  0
    0.0000    0.0000    0.0000 H   0  0  0  0  0  0  0  0  0  0  0  0
    0.0000    0.0000    0.0000 H   0  0  0  0  0  0  0  0  0  0  0  0
    0.0000    0.0000    0.0000 H   0  0  0  0  0  0  0  0  0  0  0  0
    0.0000    0.0000    0.0000 H   0  0  0  0  0  0  0  0  0  0  0  0
    0.0000    0.0000    0.0000 H   0  0  0  0  0  0  0  0  0  0  0  0
    0.0000    0.0000    0.0000 H   0  0  0  0  0  0  0  0  0  0  0  0
    0.0000    0.0000    0.0000 H   0  0  0  0  0  0  0  0  0  0  0  0
  1  3  1  0
  1  4  1  0
  1  7  1  0
  1 16  1  0
  2  5  1  0
  2  6  1  0
  2  8  1  0
  2 17  1  0
  3  9  1  0
  4 10  1  0
  5 11  1  0
  6 12  1  0
  7 13  1  0
  8 14  1  0
  9 10  1  0
 11 12  1  0
 13 15  1  0
 14 15  1  0
  3 18  1  0
  3 19  1  0
  4 20  1  0
  4 21  1  0
  5 22  1  0
  5 23  1  0
  6 24  1  0
  6 25  1  0
  7 26  1  0
  7 27  1  0
  8 28  1  0
  8 29  1  0
  9 30  1  0
  9 31  1  0
 10 32  1  0
 10 33  1  0
 11 34  1  0
 11 35  1  0
 12 36  1  0
 12 37  1  0
 13 38  1  0
 13 39  1  0
 14 40  1  0
 14 41  1  0
 15 42  1  0
 15 43  1  0
 16 44  1  0
 16 45  1  0
 16 46  1  0
 17 47  1  0
 17 48  1  0
 17 49  1  0
M  CHG  2   1   1   2   1
M  END
>  <ALOGPS_LOGP>  (1) 
-2.26

>  <ALOGPS_LOGS>  (1) 
-7.43

>  <ALOGPS_SOLUBILITY>  (1) 
1.16e-05 g/l

>  <DATABASE_ID>  (1) 
DB01090

>  <DATABASE_NAME>  (1) 
drugbank

>  <DRUGBANK_ID>  (1) 
DB01090

>  <DRUG_GROUPS>  (1) 
approved

>  <EXACT_MASS>  (1) 
240.256549034

>  <FORMULA>  (1) 
C15H32N2

>  <GENERIC_NAME>  (1) 
Pentolinium

>  <INCHI_IDENTIFIER>  (1) 
InChI=1S/C15H32N2/c1-16(12-6-7-13-16)10-4-3-5-11-17(2)14-8-9-15-17/h3-15H2,1-2H3/q+2

>  <INCHI_KEY>  (1) 
XSBSKEQEUFOSDD-UHFFFAOYSA-N

>  <INTERNATIONAL_BRANDS>  (1) 
Ansolysen

>  <JCHEM_ACCEPTOR_COUNT>  (1) 
0

>  <JCHEM_AVERAGE_POLARIZABILITY>  (1) 
31.35545016829584

>  <JCHEM_BIOAVAILABILITY>  (1) 
1

>  <JCHEM_DONOR_COUNT>  (1) 
0

>  <JCHEM_FORMAL_CHARGE>  (1) 
2

>  <JCHEM_GHOSE_FILTER>  (1) 
0

>  <JCHEM_IUPAC>  (1) 
1-methyl-1-[5-(1-methylpyrrolidin-1-ium-1-yl)pentyl]pyrrolidin-1-ium

>  <JCHEM_LOGP>  (1) 
-6.28237323661016

>  <JCHEM_MDDR_LIKE_RULE>  (1) 
0

>  <JCHEM_NUMBER_OF_RINGS>  (1) 
2

>  <JCHEM_PHYSIOLOGICAL_CHARGE>  (1) 
2

>  <JCHEM_POLAR_SURFACE_AREA>  (1) 
0

>  <JCHEM_REFRACTIVITY>  (1) 
99.0274

>  <JCHEM_ROTATABLE_BOND_COUNT>  (1) 
6

>  <JCHEM_RULE_OF_FIVE>  (1) 
1

>  <JCHEM_TRADITIONAL_IUPAC>  (1) 
pentolinium

>  <JCHEM_VEBER_RULE>  (1) 
1

>  <MOLECULAR_WEIGHT>  (1) 
240.428

>  <SALTS>  (1) 
Pentolinium tartrate

>  <SECONDARY_ACCESSION_NUMBERS>  (1) 
APRD00038

>  <SMILES>  (1) 
C[N+]1(CCCCC[N+]2(C)CCCC2)CCCC1

>  <SYNONYMS>  (1) 
Pentolonium; Pentolonum

$$$$
