1234
     RDKit          2D

 57 60  0  0  1  0  0  0  0  0999 V2000
    4.1400   -0.1892    0.0000 F   0  0  0  0  0  0  0  0  0  0  0  0
    6.6263    1.0402    0.0000 O   0  0  0  0  0  0  0  0  0  0  0  0
    3.9559    0.4163    0.0000 O   0  0  0  0  0  0  0  0  0  0  0  0
    8.3013    0.4021    0.0000 O   0  0  0  0  0  0  0  0  0  0  0  0
    8.1317    2.0434    0.0000 O   0  0  0  0  0  0  0  0  0  0  0  0
    1.6500   -2.5144    0.0000 O   0  0  0  0  0  0  0  0  0  0  0  0
    6.0993    0.0038    0.0000 C   0  0  0  0  0  0  0  0  0  0  0  0
    6.0993   -0.8212    0.0000 C   0  0  0  0  0  0  0  0  0  0  0  0
    5.3849   -1.2337    0.0000 C   0  0  0  0  0  0  0  0  0  0  0  0
    4.6703   -0.8212    0.0000 C   0  0  0  0  0  0  0  0  0  0  0  0
    6.8799    0.2553    0.0000 C   0  0  0  0  0  0  0  0  0  0  0  0
    6.8799   -1.0726    0.0000 C   0  0  0  0  0  0  0  0  0  0  0  0
    5.3849    0.4163    0.0000 C   0  0  0  0  0  0  0  0  0  0  0  0
    7.3614   -0.4087    0.0000 C   0  0  0  0  0  0  0  0  0  0  0  0
    4.6703    0.0038    0.0000 C   0  0  0  0  0  0  0  0  0  0  0  0
    3.9196   -1.2393    0.0000 C   0  0  0  0  0  0  0  0  0  0  0  0
    5.3981   -2.0929    0.0000 C   0  0  0  0  0  0  0  0  0  0  0  0
    6.0993    0.8288    0.0000 C   0  0  0  0  0  0  0  0  0  0  0  0
    4.6572   -2.5283    0.0000 C   0  0  0  0  0  0  0  0  0  0  0  0
    3.9130   -2.0986    0.0000 C   0  0  0  0  0  0  0  0  0  0  0  0
    7.5482    0.7390    0.0000 C   0  0  0  0  0  0  0  0  0  0  0  0
    8.1864   -0.4087    0.0000 C   0  0  0  0  0  0  0  0  0  0  0  0
    3.6435   -0.4619    0.0000 C   0  0  0  0  0  0  0  0  0  0  0  0
    3.1550   -0.7739    0.0000 C   0  0  0  0  0  0  0  0  0  0  0  0
    3.1413   -2.5521    0.0000 C   0  0  0  0  0  0  0  0  0  0  0  0
    7.4634    1.5596    0.0000 C   0  0  0  0  0  0  0  0  0  0  0  0
    2.3730   -1.2095    0.0000 C   0  0  0  0  0  0  0  0  0  0  0  0
    2.3660   -2.1046    0.0000 C   0  0  0  0  0  0  0  0  0  0  0  0
    0.0000    0.0000    0.0000 H   0  0  0  0  0  0  0  0  0  0  0  0
    0.0000    0.0000    0.0000 H   0  0  0  0  0  0  0  0  0  0  0  0
    0.0000    0.0000    0.0000 H   0  0  0  0  0  0  0  0  0  0  0  0
    0.0000    0.0000    0.0000 H   0  0  0  0  0  0  0  0  0  0  0  0
    0.0000    0.0000    0.0000 H   0  0  0  0  0  0  0  0  0  0  0  0
    0.0000    0.0000    0.0000 H   0  0  0  0  0  0  0  0  0  0  0  0
    0.0000    0.0000    0.0000 H   0  0  0  0  0  0  0  0  0  0  0  0
    0.0000    0.0000    0.0000 H   0  0  0  0  0  0  0  0  0  0  0  0
    0.0000    0.0000    0.0000 H   0  0  0  0  0  0  0  0  0  0  0  0
    0.0000    0.0000    0.0000 H   0  0  0  0  0  0  0  0  0  0  0  0
    0.0000    0.0000    0.0000 H   0  0  0  0  0  0  0  0  0  0  0  0
    0.0000    0.0000    0.0000 H   0  0  0  0  0  0  0  0  0  0  0  0
    0.0000    0.0000    0.0000 H   0  0  0  0  0  0  0  0  0  0  0  0
    0.0000    0.0000    0.0000 H   0  0  0  0  0  0  0  0  0  0  0  0
    0.0000    0.0000    0.0000 H   0  0  0  0  0  0  0  0  0  0  0  0
    0.0000    0.0000    0.0000 H   0  0  0  0  0  0  0  0  0  0  0  0
    0.0000    0.0000    0.0000 H   0  0  0  0  0  0  0  0  0  0  0  0
    0.0000    0.0000    0.0000 H   0  0  0  0  0  0  0  0  0  0  0  0
    0.0000    0.0000    0.0000 H   0  0  0  0  0  0  0  0  0  0  0  0
    0.0000    0.0000    0.0000 H   0  0  0  0  0  0  0  0  0  0  0  0
    0.0000    0.0000    0.0000 H   0  0  0  0  0  0  0  0  0  0  0  0
    0.0000    0.0000    0.0000 H   0  0  0  0  0  0  0  0  0  0  0  0
    0.0000    0.0000    0.0000 H   0  0  0  0  0  0  0  0  0  0  0  0
    0.0000    0.0000    0.0000 H   0  0  0  0  0  0  0  0  0  0  0  0
    0.0000    0.0000    0.0000 H   0  0  0  0  0  0  0  0  0  0  0  0
    0.0000    0.0000    0.0000 H   0  0  0  0  0  0  0  0  0  0  0  0
    0.0000    0.0000    0.0000 H   0  0  0  0  0  0  0  0  0  0  0  0
    0.0000    0.0000    0.0000 H   0  0  0  0  0  0  0  0  0  0  0  0
    0.0000    0.0000    0.0000 H   0  0  0  0  0  0  0  0  0  0  0  0
 10  1  1  6
 11  2  1  6
 15  3  1  1
  4 21  2  0
  5 26  1  0
  6 28  2  0
  7  8  1  0
  7 11  1  0
  7 13  1  0
  7 18  1  1
  8  9  1  0
  8 12  1  0
  9 10  1  0
  9 17  1  0
 10 15  1  0
 10 16  1  0
 11 14  1  0
 11 21  1  0
 12 14  1  0
 13 15  1  0
 14 22  1  1
 16 20  1  0
 16 23  1  1
 16 24  1  0
 17 19  1  0
 19 20  1  0
 20 25  2  0
 21 26  1  0
 24 27  2  0
 25 28  1  0
 27 28  1  0
  2 29  1  0
  3 30  1  0
  5 31  1  0
  8 32  1  6
  9 33  1  1
 12 34  1  0
 12 35  1  0
 13 36  1  0
 13 37  1  0
 14 38  1  0
 15 39  1  0
 17 40  1  0
 17 41  1  0
 18 42  1  0
 18 43  1  0
 18 44  1  0
 19 45  1  0
 19 46  1  0
 22 47  1  0
 22 48  1  0
 22 49  1  0
 23 50  1  0
 23 51  1  0
 23 52  1  0
 24 53  1  0
 25 54  1  0
 26 55  1  0
 26 56  1  0
 27 57  1  0
M  END
>  <ALOGPS_LOGP>  (1) 
1.93

>  <ALOGPS_LOGS>  (1) 
-3.89

>  <ALOGPS_SOLUBILITY>  (1) 
5.05e-02 g/l

>  <DATABASE_ID>  (1) 
DB01234

>  <DATABASE_NAME>  (1) 
drugbank

>  <DRUGBANK_ID>  (1) 
DB01234

>  <DRUG_GROUPS>  (1) 
approved; investigational; vet_approved

>  <EXACT_MASS>  (1) 
392.199902243

>  <FORMULA>  (1) 
C22H29FO5

>  <GENERIC_NAME>  (1) 
Dexamethasone

>  <INCHI_IDENTIFIER>  (1) 
InChI=1S/C22H29FO5/c1-12-8-16-15-5-4-13-9-14(25)6-7-19(13,2)21(15,23)17(26)10-20(16,3)22(12,28)18(27)11-24/h6-7,9,12,15-17,24,26,28H,4-5,8,10-11H2,1-3H3/t12-,15+,16+,17+,19+,20+,21+,22+/m1/s1

>  <INCHI_KEY>  (1) 
UREBDLICKHMUKA-CXSFZGCWSA-N

>  <INTERNATIONAL_BRANDS>  (1) 
Decadron

>  <JCHEM_ACCEPTOR_COUNT>  (1) 
5

>  <JCHEM_AVERAGE_POLARIZABILITY>  (1) 
40.82611059655653

>  <JCHEM_BIOAVAILABILITY>  (1) 
1

>  <JCHEM_DONOR_COUNT>  (1) 
3

>  <JCHEM_FORMAL_CHARGE>  (1) 
0

>  <JCHEM_GHOSE_FILTER>  (1) 
1

>  <JCHEM_IUPAC>  (1) 
(1R,2S,10S,11S,13R,14R,15S,17S)-1-fluoro-14,17-dihydroxy-14-(2-hydroxyacetyl)-2,13,15-trimethyltetracyclo[8.7.0.0²,⁷.0¹¹,¹⁵]heptadeca-3,6-dien-5-one

>  <JCHEM_LOGP>  (1) 
1.6815696796666673

>  <JCHEM_MDDR_LIKE_RULE>  (1) 
0

>  <JCHEM_NUMBER_OF_RINGS>  (1) 
4

>  <JCHEM_PHYSIOLOGICAL_CHARGE>  (1) 
0

>  <JCHEM_PKA>  (1) 
13.479946732889243

>  <JCHEM_PKA_STRONGEST_ACIDIC>  (1) 
12.42373529494919

>  <JCHEM_PKA_STRONGEST_BASIC>  (1) 
-3.330175673865819

>  <JCHEM_POLAR_SURFACE_AREA>  (1) 
94.83000000000001

>  <JCHEM_REFRACTIVITY>  (1) 
102.49289999999998

>  <JCHEM_ROTATABLE_BOND_COUNT>  (1) 
2

>  <JCHEM_RULE_OF_FIVE>  (1) 
1

>  <JCHEM_TRADITIONAL_IUPAC>  (1) 
dexamethasone

>  <JCHEM_VEBER_RULE>  (1) 
0

>  <MOLECULAR_WEIGHT>  (1) 
392.4611

>  <PRODUCTS>  (1) 
999 Itch Relief; Accufix II Dec Model 033-212; Apo-dexamethasone; Baycadron; Ciprodex; Cresophene Liq; DEXAMETHASONE Sodium Phosphate; Decadron; Decadron DP; Decadron Phosphate Eye Ear Sol 0.1%; Decadron Phosphate Inj 4mg/ml; Decadron Tab 0.5mg; Decadron Tab 4mg; Dexamethasone; Dexamethasone 1.5 mg; Dexamethasone Intensol; Dexamethasone Omega Unidose; Dexamethasone Sod Phos Inj 4mg/ml; Dexamethasone Sod Phosph Inj 10mg/ml USP; Dexamethasone Sodium Phosphate; Dexamethasone Sodium Phosphate 0.1%; Dexamethasone Sodium Phosphate Inj USP 4mg/ml; Dexamethasone Sodium Phosphate Injection Sdz; Dexamethasone Sodium Phosphate Injection, USP; Dexamethasone sodium phosphate; Dexamethasone-omega; Dexamethsone; Dexasone 0.5mg; Dexasone 0.75mg; Dexasone 4mg; Dioptrol Ointment; Dioptrol Suspension; Dmt Suik; Dom-dexamethasone Tablet 4mg; Encor Dec Model 033-159 Imp 0.5mg/imp; Encor Dec Model 033-443 Imp 0.5mg/imp; Encor Dec Model 033-448 Imp 0.5mg/imp; Encor Dec Model 033-757 Imp 0.5mg/imp; Encor Dec Model 033-856 Imp 0.5mg/imp; Hexadrol Phosphate Inj 10mg/ml; Hexadrol Phosphate Inj 4mg/ml; LoCort 11-Day; LoCort 7-Day; Mas Care-pak Dexamethasone; Maxidex; Maxitrol; Methedex; Neo-poly-dex; Neodecadron Eye Ear Soln 0.1%; Neofordex; Neomycin Polymyxin B Sulfates and Dexamethasone; Neomycin Sulfate, Polymyxin B Sulfate and Dexamethasone; Neomycin and Polymyxin B Sulfates and Dexamethasone; Npd; Ocudex Liq 0.1%; Odan-dexamethasone; Odan-trol; Ozurdex; PHL-dexamethasone; PMS Dexamethasone Elixir 0.5mg/5ml; PMS Dexamethasone Tab 0.5mg USP; PMS Dexamethasone Tab 0.75mg USP; PMS Dexamethasone Tab 4mg; PMS-dexamethasone; PMS-dexamethasone Sod Phosphate Dps 1mg/ml; PMS-dexamethasone Sod Phosphate Inj 10mg/ml; PMS-dexamethasone Sod Phosphate Inj 4mg/ml; Pro-dexamethasone - 4; R.O.-dexsone; Ratio-dexamethasone; Ratio-dexamethasone Tablets, USP; ReadySharp Anesthetics plus Dexamethasone; ReadySharp Dexamethasone; Sandoz Dexamethasone; Sandoz Opticort; Sofracort Ear/eye Ointment; Sofracort Sterile Ear/eye Drops; Sofracort Sterile Ear/eye Ointment; TobraDex; Tobradex; Tobradex ST; Tobramycin and Dexamethasone; ZoDex; ZonaCort 11-Day; ZonaCort 7-Day

>  <SALTS>  (1) 
Dexamethasone acetate; Dexamethasone phosphate; Dexamethasone sodium phosphate

>  <SECONDARY_ACCESSION_NUMBERS>  (1) 
APRD00674

>  <SMILES>  (1) 
[H][C@@]12C[C@@H](C)[C@](O)(C(=O)CO)[C@@]1(C)C[C@H](O)[C@@]1(F)[C@@]2([H])CCC2=CC(=O)C=C[C@]12C

>  <SYNONYMS>  (1) 
1-Dehydro-16α-methyl-9α-fluorohydrocortisone; 16α-Methyl-9α-fluoro-1-dehydrocortisol; 9α-Fluoro-16α-methylprednisolone; Dexametasona; Dexamethasonum

$$$$
