
     RDKit          2D

 60 63  0  0  0  0  0  0  0  0999 V2000
    1.4289    2.4267    0.0000 C   0  0  0  0  0  0  0  0  0  0  0  0
    0.7144    2.0142    0.0000 C   0  0  0  0  0  0  0  0  0  0  0  0
    0.7144    1.1892    0.0000 C   0  0  0  0  0  0  0  0  0  0  0  0
    0.0000    0.7767    0.0000 N   0  0  0  0  0  0  0  0  0  0  0  0
   -0.7144    1.1892    0.0000 C   0  0  0  0  0  0  0  0  0  0  0  0
   -0.7144    2.0142    0.0000 C   0  0  0  0  0  0  0  0  0  0  0  0
    0.0000    2.4267    0.0000 C   0  0  0  0  0  0  0  0  0  0  0  0
    0.3873    3.1551    0.0000 C   0  0  0  0  0  0  0  0  0  0  0  0
    0.4448    3.9781    0.0000 O   0  0  0  0  0  0  0  0  0  0  0  0
    1.2118    3.1839    0.0000 O   0  0  0  0  0  0  0  0  0  0  0  0
   -0.3873    3.1551    0.0000 C   0  0  0  0  0  0  0  0  0  0  0  0
   -1.2118    3.1839    0.0000 C   0  0  0  0  0  0  0  0  0  0  0  0
   -1.5991    3.9123    0.0000 C   0  0  0  0  0  0  0  0  0  0  0  0
   -1.1619    4.6120    0.0000 C   0  0  0  0  0  0  0  0  0  0  0  0
   -0.3374    4.5832    0.0000 C   0  0  0  0  0  0  0  0  0  0  0  0
    0.0498    3.8548    0.0000 C   0  0  0  0  0  0  0  0  0  0  0  0
    0.0000   -0.0482    0.0000 C   0  0  0  0  0  0  0  0  0  0  0  0
   -0.7144   -0.4607    0.0000 C   0  0  0  0  0  0  0  0  0  0  0  0
   -0.7144   -1.2857    0.0000 C   0  0  0  0  0  0  0  0  0  0  0  0
    0.0000   -1.6982    0.0000 C   0  0  0  0  0  0  0  0  0  0  0  0
    0.7144   -1.2857    0.0000 C   0  0  0  0  0  0  0  0  0  0  0  0
    0.7144   -0.4607    0.0000 C   0  0  0  0  0  0  0  0  0  0  0  0
   -0.3873   -2.4267    0.0000 C   0  0  0  0  0  0  0  0  0  0  0  0
   -0.7746   -3.1551    0.0000 N   0  0  0  0  0  0  0  0  0  0  0  0
    0.3873   -2.4267    0.0000 C   0  0  0  0  0  0  0  0  0  0  0  0
    1.2118   -2.4554    0.0000 C   0  0  0  0  0  0  0  0  0  0  0  0
    1.5991   -3.1839    0.0000 C   0  0  0  0  0  0  0  0  0  0  0  0
    1.1619   -3.8835    0.0000 C   0  0  0  0  0  0  0  0  0  0  0  0
    1.5492   -4.6120    0.0000 F   0  0  0  0  0  0  0  0  0  0  0  0
    0.3374   -3.8548    0.0000 C   0  0  0  0  0  0  0  0  0  0  0  0
   -0.0498   -3.1264    0.0000 C   0  0  0  0  0  0  0  0  0  0  0  0
    0.0000    0.0000    0.0000 H   0  0  0  0  0  0  0  0  0  0  0  0
    0.0000    0.0000    0.0000 H   0  0  0  0  0  0  0  0  0  0  0  0
    0.0000    0.0000    0.0000 H   0  0  0  0  0  0  0  0  0  0  0  0
    0.0000    0.0000    0.0000 H   0  0  0  0  0  0  0  0  0  0  0  0
    0.0000    0.0000    0.0000 H   0  0  0  0  0  0  0  0  0  0  0  0
    0.0000    0.0000    0.0000 H   0  0  0  0  0  0  0  0  0  0  0  0
    0.0000    0.0000    0.0000 H   0  0  0  0  0  0  0  0  0  0  0  0
    0.0000    0.0000    0.0000 H   0  0  0  0  0  0  0  0  0  0  0  0
    0.0000    0.0000    0.0000 H   0  0  0  0  0  0  0  0  0  0  0  0
    0.0000    0.0000    0.0000 H   0  0  0  0  0  0  0  0  0  0  0  0
    0.0000    0.0000    0.0000 H   0  0  0  0  0  0  0  0  0  0  0  0
    0.0000    0.0000    0.0000 H   0  0  0  0  0  0  0  0  0  0  0  0
    0.0000    0.0000    0.0000 H   0  0  0  0  0  0  0  0  0  0  0  0
    0.0000    0.0000    0.0000 H   0  0  0  0  0  0  0  0  0  0  0  0
    0.0000    0.0000    0.0000 H   0  0  0  0  0  0  0  0  0  0  0  0
    0.0000    0.0000    0.0000 H   0  0  0  0  0  0  0  0  0  0  0  0
    0.0000    0.0000    0.0000 H   0  0  0  0  0  0  0  0  0  0  0  0
    0.0000    0.0000    0.0000 H   0  0  0  0  0  0  0  0  0  0  0  0
    0.0000    0.0000    0.0000 H   0  0  0  0  0  0  0  0  0  0  0  0
    0.0000    0.0000    0.0000 H   0  0  0  0  0  0  0  0  0  0  0  0
    0.0000    0.0000    0.0000 H   0  0  0  0  0  0  0  0  0  0  0  0
    0.0000    0.0000    0.0000 H   0  0  0  0  0  0  0  0  0  0  0  0
    0.0000    0.0000    0.0000 H   0  0  0  0  0  0  0  0  0  0  0  0
    0.0000    0.0000    0.0000 H   0  0  0  0  0  0  0  0  0  0  0  0
    0.0000    0.0000    0.0000 H   0  0  0  0  0  0  0  0  0  0  0  0
    0.0000    0.0000    0.0000 H   0  0  0  0  0  0  0  0  0  0  0  0
    0.0000    0.0000    0.0000 H   0  0  0  0  0  0  0  0  0  0  0  0
    0.0000    0.0000    0.0000 H   0  0  0  0  0  0  0  0  0  0  0  0
    0.0000    0.0000    0.0000 H   0  0  0  0  0  0  0  0  0  0  0  0
  2  1  1  1
  2  3  1  0
  3  4  1  0
  4  5  1  0
  5  6  1  0
  6  7  1  0
  2  7  1  0
  7  8  1  1
  8  9  2  0
  8 10  1  0
  7 11  1  0
 11 12  2  0
 12 13  1  0
 13 14  2  0
 14 15  1  0
 15 16  2  0
 11 16  1  0
 17  4  1  6
 17 18  1  0
 18 19  1  0
 19 20  1  0
 20 21  1  0
 21 22  1  0
 17 22  1  0
 20 23  1  1
 23 24  3  0
 20 25  1  0
 25 26  2  0
 26 27  1  0
 27 28  2  0
 28 29  1  0
 28 30  1  0
 30 31  2  0
 25 31  1  0
  1 32  1  0
  1 33  1  0
  1 34  1  0
  2 35  1  0
  3 36  1  0
  3 37  1  0
  5 38  1  0
  5 39  1  0
  6 40  1  0
  6 41  1  0
 10 42  1  0
 12 43  1  0
 13 44  1  0
 14 45  1  0
 15 46  1  0
 16 47  1  0
 17 48  1  0
 18 49  1  0
 18 50  1  0
 19 51  1  0
 19 52  1  0
 21 53  1  0
 21 54  1  0
 22 55  1  0
 22 56  1  0
 26 57  1  0
 27 58  1  0
 30 59  1  0
 31 60  1  0
M  END
>  <ALOGPS_LOGP>  (1) 
4.56

>  <ALOGPS_LOGS>  (1) 
-5.08

>  <ALOGPS_SOLUBILITY>  (1) 
3.47e-03 g/l

>  <DATABASE_ID>  (1) 
DB01106

>  <DATABASE_NAME>  (1) 
drugbank

>  <DRUGBANK_ID>  (1) 
DB01106

>  <DRUG_GROUPS>  (1) 
approved

>  <EXACT_MASS>  (1) 
420.221306345

>  <FORMULA>  (1) 
C26H29FN2O2

>  <GENERIC_NAME>  (1) 
Levocabastine

>  <INCHI_IDENTIFIER>  (1) 
InChI=1S/C26H29FN2O2/c1-19-17-29(16-15-26(19,24(30)31)21-5-3-2-4-6-21)23-11-13-25(18-28,14-12-23)20-7-9-22(27)10-8-20/h2-10,19,23H,11-17H2,1H3,(H,30,31)/t19-,23-,25-,26-/m1/s1

>  <INCHI_KEY>  (1) 
ZCGOMHNNNFPNMX-KYTRFIICSA-N

>  <JCHEM_ACCEPTOR_COUNT>  (1) 
4

>  <JCHEM_ATOM_COUNT>  (1) 
60

>  <JCHEM_AVERAGE_POLARIZABILITY>  (1) 
45.58351133797778

>  <JCHEM_BIOAVAILABILITY>  (1) 
1

>  <JCHEM_DONOR_COUNT>  (1) 
1

>  <JCHEM_FORMAL_CHARGE>  (1) 
0

>  <JCHEM_GHOSE_FILTER>  (1) 
1

>  <JCHEM_IUPAC>  (1) 
(3S,4R)-3-methyl-4-phenyl-1-[(1s,4s)-4-cyano-4-(4-fluorophenyl)cyclohexyl]piperidine-4-carboxylic acid

>  <JCHEM_LOGP>  (1) 
2.4994275769920513

>  <JCHEM_MDDR_LIKE_RULE>  (1) 
0

>  <JCHEM_NUMBER_OF_RINGS>  (1) 
4

>  <JCHEM_PHYSIOLOGICAL_CHARGE>  (1) 
0

>  <JCHEM_PKA_STRONGEST_ACIDIC>  (1) 
3.7128965649869827

>  <JCHEM_PKA_STRONGEST_BASIC>  (1) 
10.322655960647666

>  <JCHEM_POLAR_SURFACE_AREA>  (1) 
64.33000000000001

>  <JCHEM_REFRACTIVITY>  (1) 
118.48339999999999

>  <JCHEM_ROTATABLE_BOND_COUNT>  (1) 
4

>  <JCHEM_RULE_OF_FIVE>  (1) 
1

>  <JCHEM_TRADITIONAL_IUPAC>  (1) 
levocabastine

>  <JCHEM_VEBER_RULE>  (1) 
0

>  <MOLECULAR_WEIGHT>  (1) 
420.528

>  <PRODUCTS>  (1) 
Livostin Eye Drops; Livostin Sus Nas 0.5mg/ml

>  <SALTS>  (1) 
Levocabastine hydrochloride

>  <SECONDARY_ACCESSION_NUMBERS>  (1) 
APRD01069

>  <SMILES>  (1) 
C[C@@H]1CN(CC[C@]1(C(O)=O)C1=CC=CC=C1)[C@H]1CC[C@](CC1)(C#N)C1=CC=C(F)C=C1

>  <SYNONYMS>  (1) 
Levocabastina; Levocabastinum

$$$$
