1084
     RDKit          2D

 48 50  0  0  1  0  0  0  0  0999 V2000
    3.8213    1.1875    0.0000 O   0  0  0  0  0  0  0  0  0  0  0  0
    5.1662   -1.6589    0.0000 N   0  0  0  0  0  0  0  0  0  0  0  0
    6.9735   -2.0714    0.0000 N   0  0  0  0  0  0  0  0  0  0  0  0
    3.8597   -0.9950    0.0000 N   0  0  0  0  0  0  0  0  0  0  0  0
    3.8597   -2.3228    0.0000 N   0  0  0  0  0  0  0  0  0  0  0  0
    5.5242   -0.9155    0.0000 C   0  0  0  0  0  0  0  0  0  0  0  0
    5.5242   -2.4022    0.0000 C   0  0  0  0  0  0  0  0  0  0  0  0
    6.3285   -0.7320    0.0000 C   0  0  0  0  0  0  0  0  0  0  0  0
    6.3285   -2.5858    0.0000 C   0  0  0  0  0  0  0  0  0  0  0  0
    6.9735   -1.2464    0.0000 C   0  0  0  0  0  0  0  0  0  0  0  0
    4.3412   -1.6589    0.0000 C   0  0  0  0  0  0  0  0  0  0  0  0
    3.0791   -1.2464    0.0000 C   0  0  0  0  0  0  0  0  0  0  0  0
    4.1159   -0.2108    0.0000 C   0  0  0  0  0  0  0  0  0  0  0  0
    3.0791   -2.0714    0.0000 C   0  0  0  0  0  0  0  0  0  0  0  0
    7.7168   -2.4293    0.0000 C   0  0  0  0  0  0  0  0  0  0  0  0
    3.5650    0.4034    0.0000 C   0  0  0  0  0  0  0  0  0  0  0  0
    2.3645   -0.8338    0.0000 C   0  0  0  0  0  0  0  0  0  0  0  0
    2.3645   -2.4839    0.0000 C   0  0  0  0  0  0  0  0  0  0  0  0
    1.6500   -1.2464    0.0000 C   0  0  0  0  0  0  0  0  0  0  0  0
    1.6500   -2.0714    0.0000 C   0  0  0  0  0  0  0  0  0  0  0  0
    3.2703    1.8016    0.0000 C   0  0  0  0  0  0  0  0  0  0  0  0
    3.5266    2.5858    0.0000 C   0  0  0  0  0  0  0  0  0  0  0  0
    0.0000    0.0000    0.0000 H   0  0  0  0  0  0  0  0  0  0  0  0
    0.0000    0.0000    0.0000 H   0  0  0  0  0  0  0  0  0  0  0  0
    0.0000    0.0000    0.0000 H   0  0  0  0  0  0  0  0  0  0  0  0
    0.0000    0.0000    0.0000 H   0  0  0  0  0  0  0  0  0  0  0  0
    0.0000    0.0000    0.0000 H   0  0  0  0  0  0  0  0  0  0  0  0
    0.0000    0.0000    0.0000 H   0  0  0  0  0  0  0  0  0  0  0  0
    0.0000    0.0000    0.0000 H   0  0  0  0  0  0  0  0  0  0  0  0
    0.0000    0.0000    0.0000 H   0  0  0  0  0  0  0  0  0  0  0  0
    0.0000    0.0000    0.0000 H   0  0  0  0  0  0  0  0  0  0  0  0
    0.0000    0.0000    0.0000 H   0  0  0  0  0  0  0  0  0  0  0  0
    0.0000    0.0000    0.0000 H   0  0  0  0  0  0  0  0  0  0  0  0
    0.0000    0.0000    0.0000 H   0  0  0  0  0  0  0  0  0  0  0  0
    0.0000    0.0000    0.0000 H   0  0  0  0  0  0  0  0  0  0  0  0
    0.0000    0.0000    0.0000 H   0  0  0  0  0  0  0  0  0  0  0  0
    0.0000    0.0000    0.0000 H   0  0  0  0  0  0  0  0  0  0  0  0
    0.0000    0.0000    0.0000 H   0  0  0  0  0  0  0  0  0  0  0  0
    0.0000    0.0000    0.0000 H   0  0  0  0  0  0  0  0  0  0  0  0
    0.0000    0.0000    0.0000 H   0  0  0  0  0  0  0  0  0  0  0  0
    0.0000    0.0000    0.0000 H   0  0  0  0  0  0  0  0  0  0  0  0
    0.0000    0.0000    0.0000 H   0  0  0  0  0  0  0  0  0  0  0  0
    0.0000    0.0000    0.0000 H   0  0  0  0  0  0  0  0  0  0  0  0
    0.0000    0.0000    0.0000 H   0  0  0  0  0  0  0  0  0  0  0  0
    0.0000    0.0000    0.0000 H   0  0  0  0  0  0  0  0  0  0  0  0
    0.0000    0.0000    0.0000 H   0  0  0  0  0  0  0  0  0  0  0  0
    0.0000    0.0000    0.0000 H   0  0  0  0  0  0  0  0  0  0  0  0
    0.0000    0.0000    0.0000 H   0  0  0  0  0  0  0  0  0  0  0  0
  1 16  1  0
  1 21  1  0
  2  6  1  0
  2  7  1  0
  2 11  1  0
  3  9  1  0
  3 10  1  0
  3 15  1  0
  4 11  1  0
  4 12  1  0
  4 13  1  0
  5 11  2  0
  5 14  1  0
  6  8  1  0
  7  9  1  0
  8 10  1  0
 12 14  2  0
 12 17  1  0
 13 16  1  0
 14 18  1  0
 17 19  2  0
 18 20  2  0
 19 20  1  0
 21 22  1  0
  6 23  1  0
  6 24  1  0
  7 25  1  0
  7 26  1  0
  8 27  1  0
  8 28  1  0
  9 29  1  0
  9 30  1  0
 10 31  1  0
 10 32  1  0
 13 33  1  0
 13 34  1  0
 15 35  1  0
 15 36  1  0
 15 37  1  0
 16 38  1  0
 16 39  1  0
 17 40  1  0
 18 41  1  0
 19 42  1  0
 20 43  1  0
 21 44  1  0
 21 45  1  0
 22 46  1  0
 22 47  1  0
 22 48  1  0
M  END
>  <ALOGPS_LOGP>  (1) 
2.91

>  <ALOGPS_LOGS>  (1) 
-2.32

>  <ALOGPS_SOLUBILITY>  (1) 
1.44e+00 g/l

>  <DATABASE_ID>  (1) 
DB01084

>  <DATABASE_NAME>  (1) 
drugbank

>  <DRUGBANK_ID>  (1) 
DB01084

>  <DRUG_GROUPS>  (1) 
approved

>  <EXACT_MASS>  (1) 
302.210661474

>  <FORMULA>  (1) 
C17H26N4O

>  <GENERIC_NAME>  (1) 
Emedastine

>  <INCHI_IDENTIFIER>  (1) 
InChI=1S/C17H26N4O/c1-3-22-14-13-21-16-8-5-4-7-15(16)18-17(21)20-10-6-9-19(2)11-12-20/h4-5,7-8H,3,6,9-14H2,1-2H3

>  <INCHI_KEY>  (1) 
KBUZBQVCBVDWKX-UHFFFAOYSA-N

>  <JCHEM_ACCEPTOR_COUNT>  (1) 
4

>  <JCHEM_AVERAGE_POLARIZABILITY>  (1) 
35.494199576355825

>  <JCHEM_BIOAVAILABILITY>  (1) 
1

>  <JCHEM_DONOR_COUNT>  (1) 
0

>  <JCHEM_FORMAL_CHARGE>  (1) 
0

>  <JCHEM_GHOSE_FILTER>  (1) 
1

>  <JCHEM_IUPAC>  (1) 
1-(2-ethoxyethyl)-2-(4-methyl-1,4-diazepan-1-yl)-1H-1,3-benzodiazole

>  <JCHEM_LOGP>  (1) 
2.4923856926666663

>  <JCHEM_MDDR_LIKE_RULE>  (1) 
0

>  <JCHEM_NUMBER_OF_RINGS>  (1) 
3

>  <JCHEM_PHYSIOLOGICAL_CHARGE>  (1) 
1

>  <JCHEM_PKA_STRONGEST_BASIC>  (1) 
8.680268990788557

>  <JCHEM_POLAR_SURFACE_AREA>  (1) 
33.53

>  <JCHEM_REFRACTIVITY>  (1) 
90.47470000000001

>  <JCHEM_ROTATABLE_BOND_COUNT>  (1) 
5

>  <JCHEM_RULE_OF_FIVE>  (1) 
1

>  <JCHEM_TRADITIONAL_IUPAC>  (1) 
emedastine

>  <JCHEM_VEBER_RULE>  (1) 
1

>  <MOLECULAR_WEIGHT>  (1) 
302.4145

>  <PRODUCTS>  (1) 
Emadine

>  <SALTS>  (1) 
Emedastine difumarate

>  <SECONDARY_ACCESSION_NUMBERS>  (1) 
APRD00946

>  <SMILES>  (1) 
CCOCCN1C(=NC2=CC=CC=C12)N1CCCN(C)CC1

>  <SYNONYMS>  (1) 
Emedastina; Emedastinum

$$$$
