
     RDKit          2D

 54 56  0  0  1  0  0  0  0  0999 V2000
   -1.3595    1.7519    0.0000 C   0  0  0  0  0  0  0  0  0  0  0  0
   -0.7145    1.2375    0.0000 C   0  0  0  0  0  0  0  0  0  0  0  0
   -0.7145    0.4125    0.0000 C   0  0  0  0  0  0  0  0  0  0  0  0
   -2.1638    1.5683    0.0000 C   0  0  0  0  0  0  0  0  0  0  0  0
   -2.1638    0.0817    0.0000 C   0  0  0  0  0  0  0  0  0  0  0  0
   -2.5218    0.8250    0.0000 C   0  0  0  0  0  0  0  0  0  0  0  0
    0.0000    0.0000    0.0000 C   0  0  0  0  0  0  0  0  0  0  0  0
    0.7145    0.4125    0.0000 C   0  0  0  0  0  0  0  0  0  0  0  0
    0.7145    1.2375    0.0000 C   0  0  0  0  0  0  0  0  0  0  0  0
    0.0000    1.6500    0.0000 C   0  0  0  0  0  0  0  0  0  0  0  0
    0.0000   -0.8250    0.0000 O   0  0  0  0  0  0  0  0  0  0  0  0
    1.4289    0.0000    0.0000 O   0  0  0  0  0  0  0  0  0  0  0  0
    1.4289    1.6500    0.0000 O   0  0  0  0  0  0  0  0  0  0  0  0
   -1.3595   -0.1019    0.0000 C   0  0  0  0  0  0  0  0  0  0  0  0
   -1.0015   -0.8452    0.0000 C   0  0  0  0  0  0  0  0  0  0  0  0
   -1.3595   -1.5885    0.0000 C   0  0  0  0  0  0  0  0  0  0  0  0
   -2.1638   -1.7721    0.0000 C   0  0  0  0  0  0  0  0  0  0  0  0
   -2.8088   -1.2577    0.0000 C   0  0  0  0  0  0  0  0  0  0  0  0
   -2.8088   -0.4327    0.0000 C   0  0  0  0  0  0  0  0  0  0  0  0
    1.4289    2.4750    0.0000 C   0  0  0  0  0  0  0  0  0  0  0  0
    2.1434    0.4125    0.0000 C   0  0  0  0  0  0  0  0  0  0  0  0
    0.7145   -1.2375    0.0000 C   0  0  0  0  0  0  0  0  0  0  0  0
   -3.5521   -1.6156    0.0000 O   0  0  0  0  0  0  0  0  0  0  0  0
   -2.3474   -2.5764    0.0000 O   0  0  0  0  0  0  0  0  0  0  0  0
   -1.7426   -3.1375    0.0000 C   0  0  0  0  0  0  0  0  0  0  0  0
   -3.3468    0.8250    0.0000 N   0  0  0  0  0  0  0  0  0  0  0  0
   -3.7593    1.5395    0.0000 C   0  0  0  0  0  0  0  0  0  0  0  0
   -3.3468    2.2539    0.0000 C   0  0  0  0  0  0  0  0  0  0  0  0
   -4.5843    1.5395    0.0000 O   0  0  0  0  0  0  0  0  0  0  0  0
    0.0000    0.0000    0.0000 H   0  0  0  0  0  0  0  0  0  0  0  0
    0.0000    0.0000    0.0000 H   0  0  0  0  0  0  0  0  0  0  0  0
    0.0000    0.0000    0.0000 H   0  0  0  0  0  0  0  0  0  0  0  0
    0.0000    0.0000    0.0000 H   0  0  0  0  0  0  0  0  0  0  0  0
    0.0000    0.0000    0.0000 H   0  0  0  0  0  0  0  0  0  0  0  0
    0.0000    0.0000    0.0000 H   0  0  0  0  0  0  0  0  0  0  0  0
    0.0000    0.0000    0.0000 H   0  0  0  0  0  0  0  0  0  0  0  0
    0.0000    0.0000    0.0000 H   0  0  0  0  0  0  0  0  0  0  0  0
    0.0000    0.0000    0.0000 H   0  0  0  0  0  0  0  0  0  0  0  0
    0.0000    0.0000    0.0000 H   0  0  0  0  0  0  0  0  0  0  0  0
    0.0000    0.0000    0.0000 H   0  0  0  0  0  0  0  0  0  0  0  0
    0.0000    0.0000    0.0000 H   0  0  0  0  0  0  0  0  0  0  0  0
    0.0000    0.0000    0.0000 H   0  0  0  0  0  0  0  0  0  0  0  0
    0.0000    0.0000    0.0000 H   0  0  0  0  0  0  0  0  0  0  0  0
    0.0000    0.0000    0.0000 H   0  0  0  0  0  0  0  0  0  0  0  0
    0.0000    0.0000    0.0000 H   0  0  0  0  0  0  0  0  0  0  0  0
    0.0000    0.0000    0.0000 H   0  0  0  0  0  0  0  0  0  0  0  0
    0.0000    0.0000    0.0000 H   0  0  0  0  0  0  0  0  0  0  0  0
    0.0000    0.0000    0.0000 H   0  0  0  0  0  0  0  0  0  0  0  0
    0.0000    0.0000    0.0000 H   0  0  0  0  0  0  0  0  0  0  0  0
    0.0000    0.0000    0.0000 H   0  0  0  0  0  0  0  0  0  0  0  0
    0.0000    0.0000    0.0000 H   0  0  0  0  0  0  0  0  0  0  0  0
    0.0000    0.0000    0.0000 H   0  0  0  0  0  0  0  0  0  0  0  0
    0.0000    0.0000    0.0000 H   0  0  0  0  0  0  0  0  0  0  0  0
    0.0000    0.0000    0.0000 H   0  0  0  0  0  0  0  0  0  0  0  0
  1  4  1  0
  2  3  2  0
  4  6  1  0
  1  2  1  0
  5  6  1  0
  3  7  1  0
  7  8  2  0
  8  9  1  0
  9 10  2  0
  2 10  1  0
  7 11  1  0
  8 12  1  0
  9 13  1  0
 16 17  2  0
 17 18  1  0
 15 16  1  0
  5 19  2  0
 14 15  2  0
 18 19  1  0
  3 14  1  0
 14  5  1  0
 13 20  1  0
 12 21  1  0
 11 22  1  0
 18 23  2  0
 17 24  1  0
 24 25  1  0
  6 26  1  0
 26 27  1  0
 27 28  1  0
 27 29  2  0
  1 30  1  0
  1 31  1  0
  4 32  1  0
  4 33  1  0
  6 34  1  0
 10 35  1  0
 15 36  1  0
 16 37  1  0
 19 38  1  0
 20 39  1  0
 20 40  1  0
 20 41  1  0
 21 42  1  0
 21 43  1  0
 21 44  1  0
 22 45  1  0
 22 46  1  0
 22 47  1  0
 25 48  1  0
 25 49  1  0
 25 50  1  0
 26 51  1  0
 28 52  1  0
 28 53  1  0
 28 54  1  0
M  END
>  <ALOGPS_LOGP>  (1) 
1.59

>  <ALOGPS_LOGS>  (1) 
-4.16

>  <ALOGPS_SOLUBILITY>  (1) 
2.76e-02 g/l

>  <DATABASE_ID>  (1) 
DB01394

>  <DATABASE_NAME>  (1) 
drugbank

>  <DRUGBANK_ID>  (1) 
DB01394

>  <DRUG_GROUPS>  (1) 
approved

>  <EXACT_MASS>  (1) 
399.168187537

>  <FORMULA>  (1) 
C22H25NO6

>  <GENERIC_NAME>  (1) 
Colchicine

>  <INCHI_IDENTIFIER>  (1) 
InChI=1S/C22H25NO6/c1-12(24)23-16-8-6-13-10-19(27-3)21(28-4)22(29-5)20(13)14-7-9-18(26-2)17(25)11-15(14)16/h7,9-11,16H,6,8H2,1-5H3,(H,23,24)

>  <INCHI_KEY>  (1) 
IAKHMKGGTNLKSZ-UHFFFAOYSA-N

>  <JCHEM_ACCEPTOR_COUNT>  (1) 
6

>  <JCHEM_AVERAGE_POLARIZABILITY>  (1) 
42.40842276748191

>  <JCHEM_BIOAVAILABILITY>  (1) 
1

>  <JCHEM_DONOR_COUNT>  (1) 
1

>  <JCHEM_FORMAL_CHARGE>  (1) 
0

>  <JCHEM_GHOSE_FILTER>  (1) 
1

>  <JCHEM_IUPAC>  (1) 
N-{3,4,5,14-tetramethoxy-13-oxotricyclo[9.5.0.0²,⁷]hexadeca-1(16),2(7),3,5,11,14-hexaen-10-yl}acetamide

>  <JCHEM_LOGP>  (1) 
1.4619885703333333

>  <JCHEM_MDDR_LIKE_RULE>  (1) 
0

>  <JCHEM_NUMBER_OF_RINGS>  (1) 
3

>  <JCHEM_PHYSIOLOGICAL_CHARGE>  (1) 
0

>  <JCHEM_PKA>  (1) 
17.72567746371771

>  <JCHEM_PKA_STRONGEST_ACIDIC>  (1) 
15.057997338591893

>  <JCHEM_PKA_STRONGEST_BASIC>  (1) 
-0.0375340554539807

>  <JCHEM_POLAR_SURFACE_AREA>  (1) 
83.09

>  <JCHEM_REFRACTIVITY>  (1) 
111.37559999999999

>  <JCHEM_ROTATABLE_BOND_COUNT>  (1) 
5

>  <JCHEM_RULE_OF_FIVE>  (1) 
1

>  <JCHEM_TRADITIONAL_IUPAC>  (1) 
colchicine

>  <JCHEM_VEBER_RULE>  (1) 
0

>  <MOLECULAR_WEIGHT>  (1) 
399.437

>  <PRODUCTS>  (1) 
Colchicine; Colchicine Tab 0.6mg; Colchicine Tab 1mg; Colcrys; Euro-colchicine; Jamp-colchicine; Mitigare; PMS-colchicine; Probenecid and Colchicine; Sandoz Colchicine; Verban Ont

>  <SMILES>  (1) 
COC1=CC2=C(C(OC)=C1OC)C1=CC=C(OC)C(=O)C=C1C(CC2)NC(C)=O

$$$$
