1421
     RDKit          2D

 87 90  0  0  1  0  0  0  0  0999 V2000
    6.6349   -0.3607    0.0000 O   0  0  0  0  0  0  0  0  0  0  0  0
    5.2059   -1.1857    0.0000 O   0  0  0  0  0  0  0  0  0  0  0  0
    8.1030   -0.2837    0.0000 O   0  0  0  0  0  0  0  0  0  0  0  0
    8.5781    1.7975    0.0000 O   0  0  0  0  0  0  0  0  0  0  0  0
    8.0638   -1.1857    0.0000 O   0  0  0  0  0  0  0  0  0  0  0  0
    3.9683   -1.9003    0.0000 O   0  0  0  0  0  0  0  0  0  0  0  0
    9.8836    1.2163    0.0000 O   0  0  0  0  0  0  0  0  0  0  0  0
    6.8225    1.4244    0.0000 O   0  0  0  0  0  0  0  0  0  0  0  0
    2.7309    0.2433    0.0000 O   0  0  0  0  0  0  0  0  0  0  0  0
    1.9058   -1.1857    0.0000 O   0  0  0  0  0  0  0  0  0  0  0  0
   10.8902    3.4774    0.0000 O   0  0  0  0  0  0  0  0  0  0  0  0
    9.8111   -0.5106    0.0000 O   0  0  0  0  0  0  0  0  0  0  0  0
   11.8601    2.1425    0.0000 O   0  0  0  0  0  0  0  0  0  0  0  0
    3.1434   -3.3292    0.0000 O   0  0  0  0  0  0  0  0  0  0  0  0
    5.5078   -3.1377    0.0000 N   0  0  0  0  0  0  0  0  0  0  0  0
    8.0638   -2.8358    0.0000 N   0  0  0  0  0  0  0  0  0  0  0  0
    4.3808    0.2432    0.0000 N   0  0  0  0  0  0  0  0  0  0  0  0
    9.2493    3.3049    0.0000 N   0  0  0  0  0  0  0  0  0  0  0  0
   12.0095    0.7213    0.0000 N   0  0  0  0  0  0  0  0  0  0  0  0
    6.6349   -1.1857    0.0000 C   0  0  0  0  0  0  0  0  0  0  0  0
    5.9203   -1.5982    0.0000 C   0  0  0  0  0  0  0  0  0  0  0  0
    5.9203   -2.4232    0.0000 C   0  0  0  0  0  0  0  0  0  0  0  0
    7.3493   -1.5982    0.0000 C   0  0  0  0  0  0  0  0  0  0  0  0
    7.3493   -2.4232    0.0000 C   0  0  0  0  0  0  0  0  0  0  0  0
    6.6349   -2.8358    0.0000 C   0  0  0  0  0  0  0  0  0  0  0  0
    7.3493    0.0518    0.0000 C   0  0  0  0  0  0  0  0  0  0  0  0
    8.2426    1.0438    0.0000 C   0  0  0  0  0  0  0  0  0  0  0  0
    7.4356    0.8723    0.0000 C   0  0  0  0  0  0  0  0  0  0  0  0
    8.6551    0.3293    0.0000 C   0  0  0  0  0  0  0  0  0  0  0  0
    4.3808   -1.1857    0.0000 C   0  0  0  0  0  0  0  0  0  0  0  0
    3.9684   -0.4712    0.0000 C   0  0  0  0  0  0  0  0  0  0  0  0
    3.1433   -0.4712    0.0000 C   0  0  0  0  0  0  0  0  0  0  0  0
    9.3986    1.8838    0.0000 C   0  0  0  0  0  0  0  0  0  0  0  0
    2.7308   -1.1857    0.0000 C   0  0  0  0  0  0  0  0  0  0  0  0
    9.7341    2.6375    0.0000 C   0  0  0  0  0  0  0  0  0  0  0  0
    3.1433   -1.9002    0.0000 C   0  0  0  0  0  0  0  0  0  0  0  0
   10.5547    2.7237    0.0000 C   0  0  0  0  0  0  0  0  0  0  0  0
    9.4756    0.2431    0.0000 C   0  0  0  0  0  0  0  0  0  0  0  0
   11.0397    2.0563    0.0000 C   0  0  0  0  0  0  0  0  0  0  0  0
   10.7040    1.3025    0.0000 C   0  0  0  0  0  0  0  0  0  0  0  0
    2.7308   -2.6147    0.0000 C   0  0  0  0  0  0  0  0  0  0  0  0
   11.1890    0.6351    0.0000 C   0  0  0  0  0  0  0  0  0  0  0  0
    0.0000    0.0000    0.0000 H   0  0  0  0  0  0  0  0  0  0  0  0
    0.0000    0.0000    0.0000 H   0  0  0  0  0  0  0  0  0  0  0  0
    0.0000    0.0000    0.0000 H   0  0  0  0  0  0  0  0  0  0  0  0
    0.0000    0.0000    0.0000 H   0  0  0  0  0  0  0  0  0  0  0  0
    0.0000    0.0000    0.0000 H   0  0  0  0  0  0  0  0  0  0  0  0
    0.0000    0.0000    0.0000 H   0  0  0  0  0  0  0  0  0  0  0  0
    0.0000    0.0000    0.0000 H   0  0  0  0  0  0  0  0  0  0  0  0
    0.0000    0.0000    0.0000 H   0  0  0  0  0  0  0  0  0  0  0  0
    0.0000    0.0000    0.0000 H   0  0  0  0  0  0  0  0  0  0  0  0
    0.0000    0.0000    0.0000 H   0  0  0  0  0  0  0  0  0  0  0  0
    0.0000    0.0000    0.0000 H   0  0  0  0  0  0  0  0  0  0  0  0
    0.0000    0.0000    0.0000 H   0  0  0  0  0  0  0  0  0  0  0  0
    0.0000    0.0000    0.0000 H   0  0  0  0  0  0  0  0  0  0  0  0
    0.0000    0.0000    0.0000 H   0  0  0  0  0  0  0  0  0  0  0  0
    0.0000    0.0000    0.0000 H   0  0  0  0  0  0  0  0  0  0  0  0
    0.0000    0.0000    0.0000 H   0  0  0  0  0  0  0  0  0  0  0  0
    0.0000    0.0000    0.0000 H   0  0  0  0  0  0  0  0  0  0  0  0
    0.0000    0.0000    0.0000 H   0  0  0  0  0  0  0  0  0  0  0  0
    0.0000    0.0000    0.0000 H   0  0  0  0  0  0  0  0  0  0  0  0
    0.0000    0.0000    0.0000 H   0  0  0  0  0  0  0  0  0  0  0  0
    0.0000    0.0000    0.0000 H   0  0  0  0  0  0  0  0  0  0  0  0
    0.0000    0.0000    0.0000 H   0  0  0  0  0  0  0  0  0  0  0  0
    0.0000    0.0000    0.0000 H   0  0  0  0  0  0  0  0  0  0  0  0
    0.0000    0.0000    0.0000 H   0  0  0  0  0  0  0  0  0  0  0  0
    0.0000    0.0000    0.0000 H   0  0  0  0  0  0  0  0  0  0  0  0
    0.0000    0.0000    0.0000 H   0  0  0  0  0  0  0  0  0  0  0  0
    0.0000    0.0000    0.0000 H   0  0  0  0  0  0  0  0  0  0  0  0
    0.0000    0.0000    0.0000 H   0  0  0  0  0  0  0  0  0  0  0  0
    0.0000    0.0000    0.0000 H   0  0  0  0  0  0  0  0  0  0  0  0
    0.0000    0.0000    0.0000 H   0  0  0  0  0  0  0  0  0  0  0  0
    0.0000    0.0000    0.0000 H   0  0  0  0  0  0  0  0  0  0  0  0
    0.0000    0.0000    0.0000 H   0  0  0  0  0  0  0  0  0  0  0  0
    0.0000    0.0000    0.0000 H   0  0  0  0  0  0  0  0  0  0  0  0
    0.0000    0.0000    0.0000 H   0  0  0  0  0  0  0  0  0  0  0  0
    0.0000    0.0000    0.0000 H   0  0  0  0  0  0  0  0  0  0  0  0
    0.0000    0.0000    0.0000 H   0  0  0  0  0  0  0  0  0  0  0  0
    0.0000    0.0000    0.0000 H   0  0  0  0  0  0  0  0  0  0  0  0
    0.0000    0.0000    0.0000 H   0  0  0  0  0  0  0  0  0  0  0  0
    0.0000    0.0000    0.0000 H   0  0  0  0  0  0  0  0  0  0  0  0
    0.0000    0.0000    0.0000 H   0  0  0  0  0  0  0  0  0  0  0  0
    0.0000    0.0000    0.0000 H   0  0  0  0  0  0  0  0  0  0  0  0
    0.0000    0.0000    0.0000 H   0  0  0  0  0  0  0  0  0  0  0  0
    0.0000    0.0000    0.0000 H   0  0  0  0  0  0  0  0  0  0  0  0
    0.0000    0.0000    0.0000 H   0  0  0  0  0  0  0  0  0  0  0  0
    0.0000    0.0000    0.0000 H   0  0  0  0  0  0  0  0  0  0  0  0
 20  1  1  6
 26  1  1  1
 21  2  1  1
 30  2  1  6
  3 26  1  0
  3 29  1  0
 27  4  1  6
 33  4  1  6
 23  5  1  6
  6 30  1  0
  6 36  1  0
  7 33  1  0
  7 40  1  0
 28  8  1  6
 32  9  1  6
 34 10  1  1
 37 11  1  6
 12 38  1  0
 39 13  1  1
 14 41  1  0
 22 15  1  6
 24 16  1  1
 31 17  1  1
 35 18  1  6
 19 42  1  0
 20 21  1  0
 20 23  1  0
 21 22  1  0
 22 25  1  0
 23 24  1  0
 24 25  1  0
 26 28  1  0
 27 28  1  0
 27 29  1  0
 29 38  1  6
 30 31  1  0
 31 32  1  0
 32 34  1  0
 33 35  1  0
 34 36  1  0
 35 37  1  0
 36 41  1  6
 37 39  1  0
 39 40  1  0
 40 42  1  6
  5 43  1  0
  8 44  1  0
  9 45  1  0
 10 46  1  0
 11 47  1  0
 12 48  1  0
 13 49  1  0
 14 50  1  0
 15 51  1  0
 15 52  1  0
 16 53  1  0
 16 54  1  0
 17 55  1  0
 17 56  1  0
 18 57  1  0
 18 58  1  0
 19 59  1  0
 19 60  1  0
 20 61  1  0
 21 62  1  0
 22 63  1  0
 23 64  1  0
 24 65  1  0
 25 66  1  0
 25 67  1  0
 26 68  1  0
 27 69  1  0
 28 70  1  0
 29 71  1  0
 30 72  1  0
 31 73  1  0
 32 74  1  0
 33 75  1  0
 34 76  1  0
 35 77  1  0
 36 78  1  0
 37 79  1  0
 38 80  1  0
 38 81  1  0
 39 82  1  0
 40 83  1  0
 41 84  1  0
 41 85  1  0
 42 86  1  0
 42 87  1  0
M  END
>  <ALOGPS_LOGP>  (1) 
-2.92

>  <ALOGPS_LOGS>  (1) 
-0.89

>  <ALOGPS_SOLUBILITY>  (1) 
7.97e+01 g/l

>  <DATABASE_ID>  (1) 
DB01421

>  <DATABASE_NAME>  (1) 
drugbank

>  <DRUGBANK_ID>  (1) 
DB01421

>  <DRUG_GROUPS>  (1) 
approved; investigational

>  <EXACT_MASS>  (1) 
615.296301173

>  <FORMULA>  (1) 
C23H45N5O14

>  <GENERIC_NAME>  (1) 
Paromomycin

>  <INCHI_IDENTIFIER>  (1) 
InChI=1S/C23H45N5O14/c24-2-7-13(32)15(34)10(27)21(37-7)41-19-9(4-30)39-23(17(19)36)42-20-12(31)5(25)1-6(26)18(20)40-22-11(28)16(35)14(33)8(3-29)38-22/h5-23,29-36H,1-4,24-28H2/t5-,6+,7+,8-,9-,10-,11-,12+,13-,14-,15-,16-,17-,18-,19-,20-,21-,22-,23+/m1/s1

>  <INCHI_KEY>  (1) 
UOZODPSAJZTQNH-LSWIJEOBSA-N

>  <INTERNATIONAL_BRANDS>  (1) 
Humatin

>  <JCHEM_ACCEPTOR_COUNT>  (1) 
19

>  <JCHEM_AVERAGE_POLARIZABILITY>  (1) 
60.40275856764997

>  <JCHEM_BIOAVAILABILITY>  (1) 
0

>  <JCHEM_DONOR_COUNT>  (1) 
13

>  <JCHEM_FORMAL_CHARGE>  (1) 
0

>  <JCHEM_GHOSE_FILTER>  (1) 
0

>  <JCHEM_IUPAC>  (1) 
(2S,3S,4R,5R,6R)-5-amino-2-(aminomethyl)-6-{[(2R,3S,4R,5S)-5-{[(1R,2R,3S,5R,6S)-3,5-diamino-2-{[(2S,3R,4R,5S,6R)-3-amino-4,5-dihydroxy-6-(hydroxymethyl)oxan-2-yl]oxy}-6-hydroxycyclohexyl]oxy}-4-hydroxy-2-(hydroxymethyl)oxolan-3-yl]oxy}oxane-3,4-diol

>  <JCHEM_LOGP>  (1) 
-8.308295949333333

>  <JCHEM_MDDR_LIKE_RULE>  (1) 
1

>  <JCHEM_NUMBER_OF_RINGS>  (1) 
4

>  <JCHEM_PHYSIOLOGICAL_CHARGE>  (1) 
5

>  <JCHEM_PKA>  (1) 
12.902517812527407

>  <JCHEM_PKA_STRONGEST_ACIDIC>  (1) 
12.227454691752135

>  <JCHEM_PKA_STRONGEST_BASIC>  (1) 
9.938207381101218

>  <JCHEM_POLAR_SURFACE_AREA>  (1) 
347.31999999999994

>  <JCHEM_REFRACTIVITY>  (1) 
134.2427999999999

>  <JCHEM_ROTATABLE_BOND_COUNT>  (1) 
9

>  <JCHEM_RULE_OF_FIVE>  (1) 
0

>  <JCHEM_TRADITIONAL_IUPAC>  (1) 
paromomycin

>  <JCHEM_VEBER_RULE>  (1) 
0

>  <MOLECULAR_WEIGHT>  (1) 
615.6285

>  <PRODUCTS>  (1) 
Humatin Cap 250mg; Paromomycin Sulfate

>  <SALTS>  (1) 
Paromomycin sulfate

>  <SMILES>  (1) 
NC[C@@H]1O[C@H](O[C@@H]2[C@@H](CO)O[C@@H](O[C@@H]3[C@@H](O)[C@H](N)C[C@H](N)[C@H]3O[C@H]3O[C@H](CO)[C@@H](O)[C@H](O)[C@H]3N)[C@@H]2O)[C@H](N)[C@@H](O)[C@@H]1O

$$$$
