
     RDKit          2D

 63 62  0  0  0  0  0  0  0  0999 V2000
   -1.3516    2.4750    0.0000 C   0  0  0  0  0  0  0  0  0  0  0  0
   -0.6372    3.7125    0.0000 C   0  0  0  0  0  0  0  0  0  0  0  0
   -2.0661    3.7125    0.0000 C   0  0  0  0  0  0  0  0  0  0  0  0
   -2.0661    2.0625    0.0000 C   0  0  0  0  0  0  0  0  0  0  0  0
   -0.6372    4.5375    0.0000 C   0  0  0  0  0  0  0  0  0  0  0  0
   -2.0661    4.5375    0.0000 C   0  0  0  0  0  0  0  0  0  0  0  0
   -2.7806    0.8250    0.0000 C   0  0  0  0  0  0  0  0  0  0  0  0
   -2.7806    0.0000    0.0000 C   0  0  0  0  0  0  0  0  0  0  0  0
   -1.3516    0.0000    0.0000 C   0  0  0  0  0  0  0  0  0  0  0  0
   -1.3516    3.3000    0.0000 C   0  0  0  0  0  0  0  0  0  0  0  0
   -2.0661    1.2375    0.0000 C   0  0  0  0  0  0  0  0  0  0  0  0
   -1.3516    4.9500    0.0000 C   0  0  0  0  0  0  0  0  0  0  0  0
   -2.0661   -0.4125    0.0000 C   0  0  0  0  0  0  0  0  0  0  0  0
   -1.3516    0.8250    0.0000 C   0  0  0  0  0  0  0  0  0  0  0  0
   -1.3516    5.7750    0.0000 C   0  0  0  0  0  0  0  0  0  0  0  0
   -2.0661   -1.2375    0.0000 C   0  0  0  0  0  0  0  0  0  0  0  0
   -2.0661    6.1875    0.0000 N   0  0  0  0  0  0  0  0  0  0  0  0
   -0.6372    6.1875    0.0000 N   0  0  0  0  0  0  0  0  0  0  0  0
   -1.3516   -1.6500    0.0000 N   0  0  0  0  0  0  0  0  0  0  0  0
   -2.7806   -1.6500    0.0000 N   0  0  0  0  0  0  0  0  0  0  0  0
   -0.6372    1.2375    0.0000 O   0  0  0  0  0  0  0  0  0  0  0  0
    2.6701    2.9857    0.0000 C   0  0  0  0  0  0  0  0  0  0  0  0
    1.9556    2.5732    0.0000 C   0  0  0  0  0  0  0  0  0  0  0  0
    2.6701    3.8107    0.0000 O   0  0  0  0  0  0  0  0  0  0  0  0
    1.9556    0.9232    0.0000 O   0  0  0  0  0  0  0  0  0  0  0  0
    1.1306    1.7482    0.0000 O   0  0  0  0  0  0  0  0  0  0  0  0
    2.7806    1.7482    0.0000 O   0  0  0  0  0  0  0  0  0  0  0  0
    1.9556    1.7482    0.0000 S   0  0  0  0  0  0  0  0  0  0  0  0
   -1.1475   -4.1250    0.0000 C   0  0  0  0  0  0  0  0  0  0  0  0
   -1.8620   -4.5375    0.0000 C   0  0  0  0  0  0  0  0  0  0  0  0
   -1.1475   -3.3000    0.0000 O   0  0  0  0  0  0  0  0  0  0  0  0
   -1.8620   -6.1875    0.0000 O   0  0  0  0  0  0  0  0  0  0  0  0
   -2.6870   -5.3625    0.0000 O   0  0  0  0  0  0  0  0  0  0  0  0
   -1.0370   -5.3625    0.0000 O   0  0  0  0  0  0  0  0  0  0  0  0
   -1.8620   -5.3625    0.0000 S   0  0  0  0  0  0  0  0  0  0  0  0
    0.0000    0.0000    0.0000 H   0  0  0  0  0  0  0  0  0  0  0  0
    0.0000    0.0000    0.0000 H   0  0  0  0  0  0  0  0  0  0  0  0
    0.0000    0.0000    0.0000 H   0  0  0  0  0  0  0  0  0  0  0  0
    0.0000    0.0000    0.0000 H   0  0  0  0  0  0  0  0  0  0  0  0
    0.0000    0.0000    0.0000 H   0  0  0  0  0  0  0  0  0  0  0  0
    0.0000    0.0000    0.0000 H   0  0  0  0  0  0  0  0  0  0  0  0
    0.0000    0.0000    0.0000 H   0  0  0  0  0  0  0  0  0  0  0  0
    0.0000    0.0000    0.0000 H   0  0  0  0  0  0  0  0  0  0  0  0
    0.0000    0.0000    0.0000 H   0  0  0  0  0  0  0  0  0  0  0  0
    0.0000    0.0000    0.0000 H   0  0  0  0  0  0  0  0  0  0  0  0
    0.0000    0.0000    0.0000 H   0  0  0  0  0  0  0  0  0  0  0  0
    0.0000    0.0000    0.0000 H   0  0  0  0  0  0  0  0  0  0  0  0
    0.0000    0.0000    0.0000 H   0  0  0  0  0  0  0  0  0  0  0  0
    0.0000    0.0000    0.0000 H   0  0  0  0  0  0  0  0  0  0  0  0
    0.0000    0.0000    0.0000 H   0  0  0  0  0  0  0  0  0  0  0  0
    0.0000    0.0000    0.0000 H   0  0  0  0  0  0  0  0  0  0  0  0
    0.0000    0.0000    0.0000 H   0  0  0  0  0  0  0  0  0  0  0  0
    0.0000    0.0000    0.0000 H   0  0  0  0  0  0  0  0  0  0  0  0
    0.0000    0.0000    0.0000 H   0  0  0  0  0  0  0  0  0  0  0  0
    0.0000    0.0000    0.0000 H   0  0  0  0  0  0  0  0  0  0  0  0
    0.0000    0.0000    0.0000 H   0  0  0  0  0  0  0  0  0  0  0  0
    0.0000    0.0000    0.0000 H   0  0  0  0  0  0  0  0  0  0  0  0
    0.0000    0.0000    0.0000 H   0  0  0  0  0  0  0  0  0  0  0  0
    0.0000    0.0000    0.0000 H   0  0  0  0  0  0  0  0  0  0  0  0
    0.0000    0.0000    0.0000 H   0  0  0  0  0  0  0  0  0  0  0  0
    0.0000    0.0000    0.0000 H   0  0  0  0  0  0  0  0  0  0  0  0
    0.0000    0.0000    0.0000 H   0  0  0  0  0  0  0  0  0  0  0  0
    0.0000    0.0000    0.0000 H   0  0  0  0  0  0  0  0  0  0  0  0
  4  1  2  3
  5  2  2  0
  6  3  1  0
  8  7  2  0
 10  1  1  0
 10  2  1  0
 10  3  2  0
  4 11  1  0
 11  7  1  0
 12  5  1  0
 12  6  2  0
 13  8  1  0
 13  9  2  0
 14  9  1  0
 14 11  2  0
 15 12  1  0
 16 13  1  0
 17 15  1  0
 18 15  2  3
 19 16  2  3
 20 16  1  0
 21 14  1  0
 23 22  1  0
 24 22  1  0
 28 23  1  0
 28 25  1  0
 28 26  2  0
 28 27  2  0
 30 29  1  0
 31 29  1  0
 35 30  1  0
 35 32  1  0
 35 33  2  0
 35 34  2  0
  1 36  1  0
  2 37  1  0
  3 38  1  0
  4 39  1  0
  5 40  1  0
  6 41  1  0
  7 42  1  0
  8 43  1  0
  9 44  1  0
 17 45  1  0
 17 46  1  0
 18 47  1  0
 19 48  1  0
 20 49  1  0
 20 50  1  0
 21 51  1  0
 22 52  1  0
 22 53  1  0
 23 54  1  0
 23 55  1  0
 24 56  1  0
 25 57  1  0
 29 58  1  0
 29 59  1  0
 30 60  1  0
 30 61  1  0
 31 62  1  0
 32 63  1  0
M  END
>  <ALOGPS_LOGP>  (1) 
1.44

>  <ALOGPS_LOGS>  (1) 
-3.64

>  <ALOGPS_SOLUBILITY>  (1) 
6.44e-02 g/l

>  <DATABASE_ID>  (1) 
DB01040

>  <DATABASE_NAME>  (1) 
drugbank

>  <DRUGBANK_ID>  (1) 
DB01040

>  <DRUG_GROUPS>  (1) 
approved

>  <EXACT_MASS>  (1) 
532.129770846

>  <FORMULA>  (1) 
C20H28N4O9S2

>  <GENERIC_NAME>  (1) 
Hydroxystilbamidine Isethionate

>  <INCHI_IDENTIFIER>  (1) 
InChI=1S/C16H16N4O.2C2H6O4S/c17-15(18)12-5-2-10(3-6-12)1-4-11-7-8-13(16(19)20)9-14(11)21;2*3-1-2-7(4,5)6/h1-9,21H,(H3,17,18)(H3,19,20);2*3H,1-2H2,(H,4,5,6)

>  <INCHI_KEY>  (1) 
XVTQTNAKZYLTNZ-UHFFFAOYSA-N

>  <INTERNATIONAL_BRANDS>  (1) 
Hydroxystilbamidin lsethionate

>  <JCHEM_ACCEPTOR_COUNT>  (1) 
5

>  <JCHEM_ATOM_COUNT>  (1) 
63

>  <JCHEM_AVERAGE_POLARIZABILITY>  (1) 
31.16910203485552

>  <JCHEM_BIOAVAILABILITY>  (1) 
1

>  <JCHEM_DONOR_COUNT>  (1) 
5

>  <JCHEM_FORMAL_CHARGE>  (1) 
0

>  <JCHEM_GHOSE_FILTER>  (1) 
0

>  <JCHEM_IUPAC>  (1) 
bis(2-hydroxyethane-1-sulfonic acid); 4-[2-(4-carbamimidoylphenyl)ethenyl]-3-hydroxybenzene-1-carboximidamide

>  <JCHEM_LOGP>  (1) 
1.2438400555236078

>  <JCHEM_MDDR_LIKE_RULE>  (1) 
0

>  <JCHEM_NUMBER_OF_RINGS>  (1) 
2

>  <JCHEM_PHYSIOLOGICAL_CHARGE>  (1) 
2

>  <JCHEM_PKA_STRONGEST_ACIDIC>  (1) 
8.217614603888192

>  <JCHEM_PKA_STRONGEST_BASIC>  (1) 
12.136800456905494

>  <JCHEM_POLAR_SURFACE_AREA>  (1) 
119.97

>  <JCHEM_REFRACTIVITY>  (1) 
106.8387

>  <JCHEM_ROTATABLE_BOND_COUNT>  (1) 
8

>  <JCHEM_RULE_OF_FIVE>  (1) 
0

>  <JCHEM_TRADITIONAL_IUPAC>  (1) 
4-[2-(4-carbamimidoylphenyl)ethenyl]-3-hydroxybenzenecarboximidamide; bis(sodium isethionate)

>  <JCHEM_VEBER_RULE>  (1) 
0

>  <MOLECULAR_WEIGHT>  (1) 
532.58

>  <SECONDARY_ACCESSION_NUMBERS>  (1) 
APRD01024

>  <SMILES>  (1) 
OCCS(O)(=O)=O.OCCS(O)(=O)=O.NC(=N)C1=CC=C(C=CC2=C(O)C=C(C=C2)C(N)=N)C=C1

>  <SYNONYMS>  (1) 
2-hydroxy-4,4'-stilbenedicarboxamidine bis(2-hydroxyethanesulphonate) (salt); Hydroxystilbamidine isetionate

$$$$
