1336
     RDKit          2D

 96102  0  0  1  0  0  0  0  0999 V2000
    4.6298    1.1720    0.0000 O   0  0  0  0  0  0  0  0  0  0  0  0
    6.0480   -1.8446    0.0000 O   0  0  0  0  0  0  0  0  0  0  0  0
    2.9824    1.9661    0.0000 O   0  0  0  0  0  0  0  0  0  0  0  0
    2.9824    3.6218    0.0000 O   0  0  0  0  0  0  0  0  0  0  0  0
    6.2164   -3.6340    0.0000 O   0  0  0  0  0  0  0  0  0  0  0  0
    7.2846   -1.6909    0.0000 O   0  0  0  0  0  0  0  0  0  0  0  0
    6.5598    2.3815    0.0000 N   0  0  0  0  0  0  0  0  0  0  0  0
    2.4799   -3.0217    0.0000 N   0  0  0  0  0  0  0  0  0  0  0  0
    5.8453    1.9689    0.0000 C   0  0  0  0  0  0  0  0  0  0  0  0
    3.1135   -2.4934    0.0000 C   0  0  0  0  0  0  0  0  0  0  0  0
    6.5598    3.2065    0.0000 C   0  0  0  0  0  0  0  0  0  0  0  0
    2.6205   -3.8347    0.0000 C   0  0  0  0  0  0  0  0  0  0  0  0
    5.1307    2.3815    0.0000 C   0  0  0  0  0  0  0  0  0  0  0  0
    5.8453    3.6190    0.0000 C   0  0  0  0  0  0  0  0  0  0  0  0
    3.8879   -2.7781    0.0000 C   0  0  0  0  0  0  0  0  0  0  0  0
    5.6317    1.1720    0.0000 C   0  0  0  0  0  0  0  0  0  0  0  0
    5.1307    3.2065    0.0000 C   0  0  0  0  0  0  0  0  0  0  0  0
    3.3949   -4.1194    0.0000 C   0  0  0  0  0  0  0  0  0  0  0  0
    6.9751    1.6620    0.0000 C   0  0  0  0  0  0  0  0  0  0  0  0
    7.3904    2.3815    0.0000 C   0  0  0  0  0  0  0  0  0  0  0  0
    2.9797   -1.6860    0.0000 C   0  0  0  0  0  0  0  0  0  0  0  0
    4.0286   -3.5911    0.0000 C   0  0  0  0  0  0  0  0  0  0  0  0
    1.6613   -3.1635    0.0000 C   0  0  0  0  0  0  0  0  0  0  0  0
    1.9479   -2.3838    0.0000 C   0  0  0  0  0  0  0  0  0  0  0  0
    4.4163    1.9689    0.0000 C   0  0  0  0  0  0  0  0  0  0  0  0
    6.0442    0.4575    0.0000 C   0  0  0  0  0  0  0  0  0  0  0  0
    4.5216   -2.2498    0.0000 C   0  0  0  0  0  0  0  0  0  0  0  0
    4.4163    3.6190    0.0000 C   0  0  0  0  0  0  0  0  0  0  0  0
    3.3922   -0.9715    0.0000 C   0  0  0  0  0  0  0  0  0  0  0  0
    4.8030   -3.8757    0.0000 C   0  0  0  0  0  0  0  0  0  0  0  0
    3.7017    2.3815    0.0000 C   0  0  0  0  0  0  0  0  0  0  0  0
    5.2960   -2.5345    0.0000 C   0  0  0  0  0  0  0  0  0  0  0  0
    3.7017    3.2065    0.0000 C   0  0  0  0  0  0  0  0  0  0  0  0
    5.4367   -3.3474    0.0000 C   0  0  0  0  0  0  0  0  0  0  0  0
    5.6317   -0.2570    0.0000 C   0  0  0  0  0  0  0  0  0  0  0  0
    6.8693    0.4575    0.0000 C   0  0  0  0  0  0  0  0  0  0  0  0
    4.2173   -0.9715    0.0000 C   0  0  0  0  0  0  0  0  0  0  0  0
    2.9797   -0.2570    0.0000 C   0  0  0  0  0  0  0  0  0  0  0  0
    4.2173    0.4575    0.0000 C   0  0  0  0  0  0  0  0  0  0  0  0
    6.0442   -0.9715    0.0000 C   0  0  0  0  0  0  0  0  0  0  0  0
    4.6298   -0.2570    0.0000 C   0  0  0  0  0  0  0  0  0  0  0  0
    3.3922    0.4575    0.0000 C   0  0  0  0  0  0  0  0  0  0  0  0
    7.2818   -0.2570    0.0000 C   0  0  0  0  0  0  0  0  0  0  0  0
    6.8693   -0.9715    0.0000 C   0  0  0  0  0  0  0  0  0  0  0  0
    2.2630    2.3815    0.0000 C   0  0  0  0  0  0  0  0  0  0  0  0
    2.9824    4.4525    0.0000 C   0  0  0  0  0  0  0  0  0  0  0  0
    6.3580   -4.4525    0.0000 C   0  0  0  0  0  0  0  0  0  0  0  0
    8.1153   -1.6909    0.0000 C   0  0  0  0  0  0  0  0  0  0  0  0
    0.0000    0.0000    0.0000 H   0  0  0  0  0  0  0  0  0  0  0  0
    0.0000    0.0000    0.0000 H   0  0  0  0  0  0  0  0  0  0  0  0
    0.0000    0.0000    0.0000 H   0  0  0  0  0  0  0  0  0  0  0  0
    0.0000    0.0000    0.0000 H   0  0  0  0  0  0  0  0  0  0  0  0
    0.0000    0.0000    0.0000 H   0  0  0  0  0  0  0  0  0  0  0  0
    0.0000    0.0000    0.0000 H   0  0  0  0  0  0  0  0  0  0  0  0
    0.0000    0.0000    0.0000 H   0  0  0  0  0  0  0  0  0  0  0  0
    0.0000    0.0000    0.0000 H   0  0  0  0  0  0  0  0  0  0  0  0
    0.0000    0.0000    0.0000 H   0  0  0  0  0  0  0  0  0  0  0  0
    0.0000    0.0000    0.0000 H   0  0  0  0  0  0  0  0  0  0  0  0
    0.0000    0.0000    0.0000 H   0  0  0  0  0  0  0  0  0  0  0  0
    0.0000    0.0000    0.0000 H   0  0  0  0  0  0  0  0  0  0  0  0
    0.0000    0.0000    0.0000 H   0  0  0  0  0  0  0  0  0  0  0  0
    0.0000    0.0000    0.0000 H   0  0  0  0  0  0  0  0  0  0  0  0
    0.0000    0.0000    0.0000 H   0  0  0  0  0  0  0  0  0  0  0  0
    0.0000    0.0000    0.0000 H   0  0  0  0  0  0  0  0  0  0  0  0
    0.0000    0.0000    0.0000 H   0  0  0  0  0  0  0  0  0  0  0  0
    0.0000    0.0000    0.0000 H   0  0  0  0  0  0  0  0  0  0  0  0
    0.0000    0.0000    0.0000 H   0  0  0  0  0  0  0  0  0  0  0  0
    0.0000    0.0000    0.0000 H   0  0  0  0  0  0  0  0  0  0  0  0
    0.0000    0.0000    0.0000 H   0  0  0  0  0  0  0  0  0  0  0  0
    0.0000    0.0000    0.0000 H   0  0  0  0  0  0  0  0  0  0  0  0
    0.0000    0.0000    0.0000 H   0  0  0  0  0  0  0  0  0  0  0  0
    0.0000    0.0000    0.0000 H   0  0  0  0  0  0  0  0  0  0  0  0
    0.0000    0.0000    0.0000 H   0  0  0  0  0  0  0  0  0  0  0  0
    0.0000    0.0000    0.0000 H   0  0  0  0  0  0  0  0  0  0  0  0
    0.0000    0.0000    0.0000 H   0  0  0  0  0  0  0  0  0  0  0  0
    0.0000    0.0000    0.0000 H   0  0  0  0  0  0  0  0  0  0  0  0
    0.0000    0.0000    0.0000 H   0  0  0  0  0  0  0  0  0  0  0  0
    0.0000    0.0000    0.0000 H   0  0  0  0  0  0  0  0  0  0  0  0
    0.0000    0.0000    0.0000 H   0  0  0  0  0  0  0  0  0  0  0  0
    0.0000    0.0000    0.0000 H   0  0  0  0  0  0  0  0  0  0  0  0
    0.0000    0.0000    0.0000 H   0  0  0  0  0  0  0  0  0  0  0  0
    0.0000    0.0000    0.0000 H   0  0  0  0  0  0  0  0  0  0  0  0
    0.0000    0.0000    0.0000 H   0  0  0  0  0  0  0  0  0  0  0  0
    0.0000    0.0000    0.0000 H   0  0  0  0  0  0  0  0  0  0  0  0
    0.0000    0.0000    0.0000 H   0  0  0  0  0  0  0  0  0  0  0  0
    0.0000    0.0000    0.0000 H   0  0  0  0  0  0  0  0  0  0  0  0
    0.0000    0.0000    0.0000 H   0  0  0  0  0  0  0  0  0  0  0  0
    0.0000    0.0000    0.0000 H   0  0  0  0  0  0  0  0  0  0  0  0
    0.0000    0.0000    0.0000 H   0  0  0  0  0  0  0  0  0  0  0  0
    0.0000    0.0000    0.0000 H   0  0  0  0  0  0  0  0  0  0  0  0
    0.0000    0.0000    0.0000 H   0  0  0  0  0  0  0  0  0  0  0  0
    0.0000    0.0000    0.0000 H   0  0  0  0  0  0  0  0  0  0  0  0
    0.0000    0.0000    0.0000 H   0  0  0  0  0  0  0  0  0  0  0  0
    0.0000    0.0000    0.0000 H   0  0  0  0  0  0  0  0  0  0  0  0
    0.0000    0.0000    0.0000 H   0  0  0  0  0  0  0  0  0  0  0  0
    0.0000    0.0000    0.0000 H   0  0  0  0  0  0  0  0  0  0  0  0
  1 25  1  0
  1 39  1  0
  2 32  1  0
  2 40  1  0
  3 31  1  0
  3 45  1  0
  4 33  1  0
  4 46  1  0
  5 34  1  0
  5 47  1  0
  6 44  1  0
  6 48  1  0
  7  9  1  0
  7 11  1  0
  7 19  1  0
  7 20  1  0
  8 10  1  0
  8 12  1  0
  8 23  1  0
  8 24  1  0
  9 13  1  0
  9 16  1  0
 10 15  1  0
 10 21  1  0
 11 14  1  0
 12 18  1  0
 13 17  2  0
 13 25  1  0
 14 17  1  0
 15 22  2  0
 15 27  1  0
 16 26  1  0
 17 28  1  0
 18 22  1  0
 21 29  1  0
 22 30  1  0
 25 31  2  0
 26 35  1  0
 26 36  2  0
 27 32  2  0
 28 33  2  0
 29 37  2  0
 29 38  1  0
 30 34  2  0
 31 33  1  0
 32 34  1  0
 35 40  2  0
 36 43  1  0
 37 41  1  0
 38 42  2  0
 39 41  2  0
 39 42  1  0
 40 44  1  0
 43 44  2  0
  9 49  1  1
 10 50  1  6
 11 51  1  0
 11 52  1  0
 12 53  1  0
 12 54  1  0
 14 55  1  0
 14 56  1  0
 16 57  1  0
 16 58  1  0
 18 59  1  0
 18 60  1  0
 19 61  1  0
 19 62  1  0
 19 63  1  0
 20 64  1  0
 20 65  1  0
 20 66  1  0
 21 67  1  0
 21 68  1  0
 23 69  1  0
 23 70  1  0
 23 71  1  0
 24 72  1  0
 24 73  1  0
 24 74  1  0
 27 75  1  0
 28 76  1  0
 30 77  1  0
 35 78  1  0
 36 79  1  0
 37 80  1  0
 38 81  1  0
 41 82  1  0
 42 83  1  0
 43 84  1  0
 45 85  1  0
 45 86  1  0
 45 87  1  0
 46 88  1  0
 46 89  1  0
 46 90  1  0
 47 91  1  0
 47 92  1  0
 47 93  1  0
 48 94  1  0
 48 95  1  0
 48 96  1  0
M  CHG  2   7   1   8   1
M  END
>  <ALOGPS_LOGP>  (1) 
2.36

>  <ALOGPS_LOGS>  (1) 
-8.05

>  <ALOGPS_SOLUBILITY>  (1) 
6.42e-06 g/l

>  <DATABASE_ID>  (1) 
DB01336

>  <DATABASE_NAME>  (1) 
drugbank

>  <DRUGBANK_ID>  (1) 
DB01336

>  <DRUG_GROUPS>  (1) 
approved

>  <EXACT_MASS>  (1) 
652.351237278

>  <FORMULA>  (1) 
C40H48N2O6

>  <GENERIC_NAME>  (1) 
Metocurine

>  <INCHI_IDENTIFIER>  (1) 
InChI=1S/C40H48N2O6/c1-41(2)17-15-27-22-34(44-6)36-24-30(27)31(41)19-25-9-12-29(13-10-25)47-40-38-28(23-37(45-7)39(40)46-8)16-18-42(3,4)32(38)20-26-11-14-33(43-5)35(21-26)48-36/h9-14,21-24,31-32H,15-20H2,1-8H3/q+2/t31-,32+/m0/s1

>  <INCHI_KEY>  (1) 
JFXBEKISTKFVAB-AJQTZOPKSA-N

>  <JCHEM_ACCEPTOR_COUNT>  (1) 
4

>  <JCHEM_ATOM_COUNT>  (1) 
96

>  <JCHEM_AVERAGE_POLARIZABILITY>  (1) 
73.07654262390781

>  <JCHEM_BIOAVAILABILITY>  (1) 
1

>  <JCHEM_DONOR_COUNT>  (1) 
0

>  <JCHEM_FORMAL_CHARGE>  (1) 
2

>  <JCHEM_GHOSE_FILTER>  (1) 
0

>  <JCHEM_IUPAC>  (1) 
(1S,16R)-9,10,21,25-tetramethoxy-15,15,30,30-tetramethyl-7,23-dioxa-15,30-diazaheptacyclo[22.6.2.2^{3,6}.1^{8,12}.1^{18,22}.0^{27,31}.0^{16,34}]hexatriaconta-3,5,8(34),9,11,18(33),19,21,24,26,31,35-dodecaene-15,30-diium

>  <JCHEM_LOGP>  (1) 
-1.8464105982768224

>  <JCHEM_MDDR_LIKE_RULE>  (1) 
0

>  <JCHEM_NUMBER_OF_RINGS>  (1) 
7

>  <JCHEM_PHYSIOLOGICAL_CHARGE>  (1) 
2

>  <JCHEM_PKA>  (1) 
14.521151981799651

>  <JCHEM_PKA_STRONGEST_ACIDIC>  (1) 
12.994155045322369

>  <JCHEM_PKA_STRONGEST_BASIC>  (1) 
-3.406440049152861

>  <JCHEM_POLAR_SURFACE_AREA>  (1) 
55.38000000000001

>  <JCHEM_REFRACTIVITY>  (1) 
211.94179999999983

>  <JCHEM_ROTATABLE_BOND_COUNT>  (1) 
4

>  <JCHEM_RULE_OF_FIVE>  (1) 
0

>  <JCHEM_TRADITIONAL_IUPAC>  (1) 
(1S,16R)-9,10,21,25-tetramethoxy-15,15,30,30-tetramethyl-7,23-dioxa-15,30-diazaheptacyclo[22.6.2.2^{3,6}.1^{8,12}.1^{18,22}.0^{27,31}.0^{16,34}]hexatriaconta-3,5,8(34),9,11,18(33),19,21,24,26,31,35-dodecaene-15,30-diium

>  <JCHEM_VEBER_RULE>  (1) 
0

>  <MOLECULAR_WEIGHT>  (1) 
652.8189

>  <SALTS>  (1) 
Metocurine chloride

>  <SMILES>  (1) 
[H][C@@]12CC3=CC=C(OC4=C5C(CC[N+](C)(C)[C@]5([H])CC5=CC(OC6=C(OC)C=C(CC[N+]1(C)C)C2=C6)=C(OC)C=C5)=CC(OC)=C4OC)C=C3

>  <SYNONYMS>  (1) 
Dimethylchondrocurarine; O,O-Dimethylchondrocurarine

$$$$
