1416
     RDKit          2D

 45 47  0  0  1  0  0  0  0  0999 V2000
    4.5080   -0.5231    0.0000 S   0  0  0  0  0  0  0  0  0  0  0  0
   10.1463   -0.9319    0.0000 S   0  0  0  0  0  0  0  0  0  0  0  0
    6.6365    1.3025    0.0000 O   0  0  0  0  0  0  0  0  0  0  0  0
    2.3645    0.7145    0.0000 O   0  0  0  0  0  0  0  0  0  0  0  0
    3.7935    2.3645    0.0000 O   0  0  0  0  0  0  0  0  0  0  0  0
    5.2224    2.3645    0.0000 O   0  0  0  0  0  0  0  0  0  0  0  0
    7.6490    0.3098    0.0000 O   0  0  0  0  0  0  0  0  0  0  0  0
    7.0035   -2.0795    0.0000 O   0  0  0  0  0  0  0  0  0  0  0  0
    5.2224    0.7145    0.0000 N   0  0  0  0  0  0  0  0  0  0  0  0
    6.6365   -0.6985    0.0000 N   0  0  0  0  0  0  0  0  0  0  0  0
    7.8009   -1.8677    0.0000 N   0  0  0  0  0  0  0  0  0  0  0  0
    9.1106   -0.0897    0.0000 N   0  0  0  0  0  0  0  0  0  0  0  0
   10.4549    0.5055    0.0000 N   0  0  0  0  0  0  0  0  0  0  0  0
    5.2224   -0.1106    0.0000 C   0  0  0  0  0  0  0  0  0  0  0  0
    6.0543   -0.1139    0.0000 C   0  0  0  0  0  0  0  0  0  0  0  0
    6.0543    0.7179    0.0000 C   0  0  0  0  0  0  0  0  0  0  0  0
    4.5080    1.1270    0.0000 C   0  0  0  0  0  0  0  0  0  0  0  0
    3.7935    0.7145    0.0000 C   0  0  0  0  0  0  0  0  0  0  0  0
    3.7935   -0.1106    0.0000 C   0  0  0  0  0  0  0  0  0  0  0  0
    3.0791    1.1270    0.0000 C   0  0  0  0  0  0  0  0  0  0  0  0
    4.5080    1.9520    0.0000 C   0  0  0  0  0  0  0  0  0  0  0  0
    7.4338   -0.4866    0.0000 C   0  0  0  0  0  0  0  0  0  0  0  0
    8.0160   -1.0712    0.0000 C   0  0  0  0  0  0  0  0  0  0  0  0
    8.8133   -0.8593    0.0000 C   0  0  0  0  0  0  0  0  0  0  0  0
    1.6500    1.1270    0.0000 C   0  0  0  0  0  0  0  0  0  0  0  0
    9.4535   -1.3798    0.0000 C   0  0  0  0  0  0  0  0  0  0  0  0
    9.9344   -0.1346    0.0000 C   0  0  0  0  0  0  0  0  0  0  0  0
    6.7883   -2.8760    0.0000 C   0  0  0  0  0  0  0  0  0  0  0  0
    0.0000    0.0000    0.0000 H   0  0  0  0  0  0  0  0  0  0  0  0
    0.0000    0.0000    0.0000 H   0  0  0  0  0  0  0  0  0  0  0  0
    0.0000    0.0000    0.0000 H   0  0  0  0  0  0  0  0  0  0  0  0
    0.0000    0.0000    0.0000 H   0  0  0  0  0  0  0  0  0  0  0  0
    0.0000    0.0000    0.0000 H   0  0  0  0  0  0  0  0  0  0  0  0
    0.0000    0.0000    0.0000 H   0  0  0  0  0  0  0  0  0  0  0  0
    0.0000    0.0000    0.0000 H   0  0  0  0  0  0  0  0  0  0  0  0
    0.0000    0.0000    0.0000 H   0  0  0  0  0  0  0  0  0  0  0  0
    0.0000    0.0000    0.0000 H   0  0  0  0  0  0  0  0  0  0  0  0
    0.0000    0.0000    0.0000 H   0  0  0  0  0  0  0  0  0  0  0  0
    0.0000    0.0000    0.0000 H   0  0  0  0  0  0  0  0  0  0  0  0
    0.0000    0.0000    0.0000 H   0  0  0  0  0  0  0  0  0  0  0  0
    0.0000    0.0000    0.0000 H   0  0  0  0  0  0  0  0  0  0  0  0
    0.0000    0.0000    0.0000 H   0  0  0  0  0  0  0  0  0  0  0  0
    0.0000    0.0000    0.0000 H   0  0  0  0  0  0  0  0  0  0  0  0
    0.0000    0.0000    0.0000 H   0  0  0  0  0  0  0  0  0  0  0  0
    0.0000    0.0000    0.0000 H   0  0  0  0  0  0  0  0  0  0  0  0
  1 14  1  0
  1 19  1  0
  2 26  1  0
  2 27  1  0
  3 16  2  0
  4 20  1  0
  4 25  1  0
  5 21  1  0
  6 21  2  0
  7 22  2  0
  8 11  1  0
  8 28  1  0
  9 14  1  0
  9 16  1  0
  9 17  1  0
 15 10  1  6
 10 22  1  0
 11 23  2  0
 12 24  1  0
 12 27  2  0
 13 27  1  0
 14 15  1  0
 15 16  1  0
 17 18  2  0
 17 21  1  0
 18 19  1  0
 18 20  1  0
 22 23  1  0
 23 24  1  0
 24 26  2  0
  5 29  1  0
 10 30  1  0
 13 31  1  0
 13 32  1  0
 14 33  1  6
 15 34  1  0
 19 35  1  0
 19 36  1  0
 20 37  1  0
 20 38  1  0
 25 39  1  0
 25 40  1  0
 25 41  1  0
 26 42  1  0
 28 43  1  0
 28 44  1  0
 28 45  1  0
M  END
>  <ALOGPS_LOGP>  (1) 
0.05

>  <ALOGPS_LOGS>  (1) 
-3.36

>  <ALOGPS_SOLUBILITY>  (1) 
1.85e-01 g/l

>  <DATABASE_ID>  (1) 
DB01416

>  <DATABASE_NAME>  (1) 
drugbank

>  <DRUGBANK_ID>  (1) 
DB01416

>  <DRUG_GROUPS>  (1) 
approved; vet_approved

>  <EXACT_MASS>  (1) 
427.062024681

>  <FORMULA>  (1) 
C15H17N5O6S2

>  <GENERIC_NAME>  (1) 
Cefpodoxime

>  <INCHI_IDENTIFIER>  (1) 
InChI=1S/C15H17N5O6S2/c1-25-3-6-4-27-13-9(12(22)20(13)10(6)14(23)24)18-11(21)8(19-26-2)7-5-28-15(16)17-7/h5,9,13H,3-4H2,1-2H3,(H2,16,17)(H,18,21)(H,23,24)/b19-8-/t9-,13-/m1/s1

>  <INCHI_KEY>  (1) 
WYUSVOMTXWRGEK-HBWVYFAYSA-N

>  <JCHEM_ACCEPTOR_COUNT>  (1) 
9

>  <JCHEM_AVERAGE_POLARIZABILITY>  (1) 
39.900278121552816

>  <JCHEM_BIOAVAILABILITY>  (1) 
1

>  <JCHEM_DONOR_COUNT>  (1) 
3

>  <JCHEM_FORMAL_CHARGE>  (1) 
0

>  <JCHEM_GHOSE_FILTER>  (1) 
0

>  <JCHEM_IUPAC>  (1) 
(6R,7R)-7-[(2Z)-2-(2-amino-1,3-thiazol-4-yl)-2-(methoxyimino)acetamido]-3-(methoxymethyl)-8-oxo-5-thia-1-azabicyclo[4.2.0]oct-2-ene-2-carboxylic acid

>  <JCHEM_LOGP>  (1) 
-1.1898911377104544

>  <JCHEM_MDDR_LIKE_RULE>  (1) 
1

>  <JCHEM_NUMBER_OF_RINGS>  (1) 
3

>  <JCHEM_PHYSIOLOGICAL_CHARGE>  (1) 
-1

>  <JCHEM_PKA>  (1) 
11.085544809060028

>  <JCHEM_PKA_STRONGEST_ACIDIC>  (1) 
3.217438038984447

>  <JCHEM_PKA_STRONGEST_BASIC>  (1) 
4.158148862082757

>  <JCHEM_POLAR_SURFACE_AREA>  (1) 
156.44000000000003

>  <JCHEM_REFRACTIVITY>  (1) 
100.708

>  <JCHEM_ROTATABLE_BOND_COUNT>  (1) 
7

>  <JCHEM_RULE_OF_FIVE>  (1) 
1

>  <JCHEM_TRADITIONAL_IUPAC>  (1) 
cefpodoxime

>  <JCHEM_VEBER_RULE>  (1) 
0

>  <MOLECULAR_WEIGHT>  (1) 
427.455

>  <PRODUCTS>  (1) 
Cefpodoxime Proxetil; Orelox

>  <SALTS>  (1) 
Cefpodoxime proxetil; Cefpodoxime sodium

>  <SMILES>  (1) 
[H][C@]12SCC(COC)=C(N1C(=O)[C@H]2NC(=O)C(=N/OC)\C1=CSC(N)=N1)C(O)=O

$$$$
