
     RDKit          2D

 48 50  0  0  0  0  0  0  0  0999 V2000
   -0.5145   -1.2657    0.0000 O   0  0  0  0  0  0  0  0  0  0  0  0
    1.6288   -1.6782    0.0000 O   0  0  0  0  0  0  0  0  0  0  0  0
    0.1998   -1.6782    0.0000 O   0  0  0  0  0  0  0  0  0  0  0  0
   -1.2290   -0.0282    0.0000 N   0  0  0  0  0  0  0  0  0  0  0  0
   -2.1222    0.9637    0.0000 C   0  0  0  0  0  0  0  0  0  0  0  0
   -2.5347    0.2492    0.0000 C   0  0  0  0  0  0  0  0  0  0  0  0
   -1.3153    0.7922    0.0000 C   0  0  0  0  0  0  0  0  0  0  0  0
   -1.9827   -0.3638    0.0000 C   0  0  0  0  0  0  0  0  0  0  0  0
   -2.5347    1.6782    0.0000 C   0  0  0  0  0  0  0  0  0  0  0  0
   -3.3597    0.2492    0.0000 C   0  0  0  0  0  0  0  0  0  0  0  0
   -0.5145   -0.4407    0.0000 C   0  0  0  0  0  0  0  0  0  0  0  0
   -3.3597    1.6782    0.0000 C   0  0  0  0  0  0  0  0  0  0  0  0
   -3.7722    0.9637    0.0000 C   0  0  0  0  0  0  0  0  0  0  0  0
    0.1998   -0.0282    0.0000 C   0  0  0  0  0  0  0  0  0  0  0  0
    0.9143   -0.4407    0.0000 C   0  0  0  0  0  0  0  0  0  0  0  0
    0.9143   -1.2657    0.0000 C   0  0  0  0  0  0  0  0  0  0  0  0
    1.6288   -0.0282    0.0000 C   0  0  0  0  0  0  0  0  0  0  0  0
    2.3432   -0.4407    0.0000 C   0  0  0  0  0  0  0  0  0  0  0  0
    3.0577   -0.0282    0.0000 C   0  0  0  0  0  0  0  0  0  0  0  0
    2.3432   -1.2657    0.0000 C   0  0  0  0  0  0  0  0  0  0  0  0
    3.7722   -0.4407    0.0000 C   0  0  0  0  0  0  0  0  0  0  0  0
    3.0577   -1.6782    0.0000 C   0  0  0  0  0  0  0  0  0  0  0  0
    3.7722   -1.2657    0.0000 C   0  0  0  0  0  0  0  0  0  0  0  0
    0.0000    0.0000    0.0000 H   0  0  0  0  0  0  0  0  0  0  0  0
    0.0000    0.0000    0.0000 H   0  0  0  0  0  0  0  0  0  0  0  0
    0.0000    0.0000    0.0000 H   0  0  0  0  0  0  0  0  0  0  0  0
    0.0000    0.0000    0.0000 H   0  0  0  0  0  0  0  0  0  0  0  0
    0.0000    0.0000    0.0000 H   0  0  0  0  0  0  0  0  0  0  0  0
    0.0000    0.0000    0.0000 H   0  0  0  0  0  0  0  0  0  0  0  0
    0.0000    0.0000    0.0000 H   0  0  0  0  0  0  0  0  0  0  0  0
    0.0000    0.0000    0.0000 H   0  0  0  0  0  0  0  0  0  0  0  0
    0.0000    0.0000    0.0000 H   0  0  0  0  0  0  0  0  0  0  0  0
    0.0000    0.0000    0.0000 H   0  0  0  0  0  0  0  0  0  0  0  0
    0.0000    0.0000    0.0000 H   0  0  0  0  0  0  0  0  0  0  0  0
    0.0000    0.0000    0.0000 H   0  0  0  0  0  0  0  0  0  0  0  0
    0.0000    0.0000    0.0000 H   0  0  0  0  0  0  0  0  0  0  0  0
    0.0000    0.0000    0.0000 H   0  0  0  0  0  0  0  0  0  0  0  0
    0.0000    0.0000    0.0000 H   0  0  0  0  0  0  0  0  0  0  0  0
    0.0000    0.0000    0.0000 H   0  0  0  0  0  0  0  0  0  0  0  0
    0.0000    0.0000    0.0000 H   0  0  0  0  0  0  0  0  0  0  0  0
    0.0000    0.0000    0.0000 H   0  0  0  0  0  0  0  0  0  0  0  0
    0.0000    0.0000    0.0000 H   0  0  0  0  0  0  0  0  0  0  0  0
    0.0000    0.0000    0.0000 H   0  0  0  0  0  0  0  0  0  0  0  0
    0.0000    0.0000    0.0000 H   0  0  0  0  0  0  0  0  0  0  0  0
    0.0000    0.0000    0.0000 H   0  0  0  0  0  0  0  0  0  0  0  0
    0.0000    0.0000    0.0000 H   0  0  0  0  0  0  0  0  0  0  0  0
    0.0000    0.0000    0.0000 H   0  0  0  0  0  0  0  0  0  0  0  0
    0.0000    0.0000    0.0000 H   0  0  0  0  0  0  0  0  0  0  0  0
  1 11  2  0
  2 16  1  0
  3 16  2  0
  4  7  1  0
  4  8  1  0
  4 11  1  0
  5  6  1  0
  5  7  1  0
  5  9  1  0
  6  8  1  0
  6 10  1  0
  9 12  1  0
 10 13  1  0
 11 14  1  0
 12 13  1  0
 15 14  1  6
 15 16  1  0
 15 17  1  0
 17 18  1  0
 18 19  2  0
 18 20  1  0
 19 21  1  0
 20 22  2  0
 21 23  2  0
 22 23  1  0
  2 24  1  0
  5 25  1  1
  6 26  1  1
  7 27  1  0
  7 28  1  0
  8 29  1  0
  8 30  1  0
  9 31  1  0
  9 32  1  0
 10 33  1  0
 10 34  1  0
 12 35  1  0
 12 36  1  0
 13 37  1  0
 13 38  1  0
 14 39  1  0
 14 40  1  0
 15 41  1  0
 17 42  1  0
 17 43  1  0
 19 44  1  0
 20 45  1  0
 21 46  1  0
 22 47  1  0
 23 48  1  0
M  END
>  <ALOGPS_LOGP>  (1) 
3.17

>  <ALOGPS_LOGS>  (1) 
-3.65

>  <ALOGPS_SOLUBILITY>  (1) 
7.08e-02 g/l

>  <DATABASE_ID>  (1) 
DB01252

>  <DATABASE_NAME>  (1) 
drugbank

>  <DRUGBANK_ID>  (1) 
DB01252

>  <DRUG_GROUPS>  (1) 
approved; investigational

>  <EXACT_MASS>  (1) 
315.183443669

>  <FORMULA>  (1) 
C19H25NO3

>  <GENERIC_NAME>  (1) 
Mitiglinide

>  <INCHI_IDENTIFIER>  (1) 
InChI=1S/C19H25NO3/c21-18(20-12-15-8-4-5-9-16(15)13-20)11-17(19(22)23)10-14-6-2-1-3-7-14/h1-3,6-7,15-17H,4-5,8-13H2,(H,22,23)/t15-,16+,17-/m0/s1

>  <INCHI_KEY>  (1) 
WPGGHFDDFPHPOB-BBWFWOEESA-N

>  <JCHEM_ACCEPTOR_COUNT>  (1) 
3

>  <JCHEM_ATOM_COUNT>  (1) 
48

>  <JCHEM_AVERAGE_POLARIZABILITY>  (1) 
34.97813819645776

>  <JCHEM_BIOAVAILABILITY>  (1) 
1

>  <JCHEM_DONOR_COUNT>  (1) 
1

>  <JCHEM_FORMAL_CHARGE>  (1) 
0

>  <JCHEM_GHOSE_FILTER>  (1) 
1

>  <JCHEM_IUPAC>  (1) 
(2S)-4-[(3aR,7aS)-octahydro-1H-isoindol-2-yl]-2-benzyl-4-oxobutanoic acid

>  <JCHEM_LOGP>  (1) 
2.924440013000001

>  <JCHEM_MDDR_LIKE_RULE>  (1) 
0

>  <JCHEM_NUMBER_OF_RINGS>  (1) 
3

>  <JCHEM_PHYSIOLOGICAL_CHARGE>  (1) 
-1

>  <JCHEM_PKA_STRONGEST_ACIDIC>  (1) 
4.621888115812319

>  <JCHEM_PKA_STRONGEST_BASIC>  (1) 
-0.8330006224352408

>  <JCHEM_POLAR_SURFACE_AREA>  (1) 
57.61

>  <JCHEM_REFRACTIVITY>  (1) 
88.30710000000002

>  <JCHEM_ROTATABLE_BOND_COUNT>  (1) 
5

>  <JCHEM_RULE_OF_FIVE>  (1) 
1

>  <JCHEM_TRADITIONAL_IUPAC>  (1) 
mitiglinide

>  <JCHEM_VEBER_RULE>  (1) 
0

>  <MOLECULAR_WEIGHT>  (1) 
315.413

>  <SALTS>  (1) 
Mitiglinide calcium dihydrate

>  <SMILES>  (1) 
[H][C@@](CC(=O)N1C[C@@]2([H])CCCC[C@@]2([H])C1)(CC1=CC=CC=C1)C(O)=O

$$$$
