1247
     RDKit          2D

 30 31  0  0  0  0  0  0  0  0999 V2000
    3.3809    2.7761    0.0000 O   0  0  0  0  0  0  0  0  0  0  0  0
    4.5079    0.2690    0.0000 O   0  0  0  0  0  0  0  0  0  0  0  0
    3.0790   -0.5560    0.0000 N   0  0  0  0  0  0  0  0  0  0  0  0
    3.0790    0.2690    0.0000 N   0  0  0  0  0  0  0  0  0  0  0  0
    3.1260    1.9915    0.0000 N   0  0  0  0  0  0  0  0  0  0  0  0
    2.3645   -0.9685    0.0000 C   0  0  0  0  0  0  0  0  0  0  0  0
    2.3645   -1.7935    0.0000 C   0  0  0  0  0  0  0  0  0  0  0  0
    3.0790   -2.2060    0.0000 C   0  0  0  0  0  0  0  0  0  0  0  0
    1.6500   -2.2060    0.0000 C   0  0  0  0  0  0  0  0  0  0  0  0
    3.7935    1.5065    0.0000 C   0  0  0  0  0  0  0  0  0  0  0  0
    3.7935    0.6815    0.0000 C   0  0  0  0  0  0  0  0  0  0  0  0
    3.0790   -3.0310    0.0000 C   0  0  0  0  0  0  0  0  0  0  0  0
    1.6500   -3.0310    0.0000 C   0  0  0  0  0  0  0  0  0  0  0  0
    4.4609    1.9915    0.0000 C   0  0  0  0  0  0  0  0  0  0  0  0
    4.2060    2.7761    0.0000 C   0  0  0  0  0  0  0  0  0  0  0  0
    2.3645   -3.4435    0.0000 C   0  0  0  0  0  0  0  0  0  0  0  0
    4.6909    3.4435    0.0000 C   0  0  0  0  0  0  0  0  0  0  0  0
    0.0000    0.0000    0.0000 H   0  0  0  0  0  0  0  0  0  0  0  0
    0.0000    0.0000    0.0000 H   0  0  0  0  0  0  0  0  0  0  0  0
    0.0000    0.0000    0.0000 H   0  0  0  0  0  0  0  0  0  0  0  0
    0.0000    0.0000    0.0000 H   0  0  0  0  0  0  0  0  0  0  0  0
    0.0000    0.0000    0.0000 H   0  0  0  0  0  0  0  0  0  0  0  0
    0.0000    0.0000    0.0000 H   0  0  0  0  0  0  0  0  0  0  0  0
    0.0000    0.0000    0.0000 H   0  0  0  0  0  0  0  0  0  0  0  0
    0.0000    0.0000    0.0000 H   0  0  0  0  0  0  0  0  0  0  0  0
    0.0000    0.0000    0.0000 H   0  0  0  0  0  0  0  0  0  0  0  0
    0.0000    0.0000    0.0000 H   0  0  0  0  0  0  0  0  0  0  0  0
    0.0000    0.0000    0.0000 H   0  0  0  0  0  0  0  0  0  0  0  0
    0.0000    0.0000    0.0000 H   0  0  0  0  0  0  0  0  0  0  0  0
    0.0000    0.0000    0.0000 H   0  0  0  0  0  0  0  0  0  0  0  0
  1  5  1  0
  1 15  1  0
  2 11  2  0
  3  4  1  0
  3  6  1  0
  4 11  1  0
  5 10  2  0
  6  7  1  0
  7  8  2  0
  7  9  1  0
  8 12  1  0
  9 13  2  0
 10 11  1  0
 10 14  1  0
 12 16  2  0
 13 16  1  0
 14 15  2  0
 15 17  1  0
  3 18  1  0
  4 19  1  0
  6 20  1  0
  6 21  1  0
  8 22  1  0
  9 23  1  0
 12 24  1  0
 13 25  1  0
 14 26  1  0
 16 27  1  0
 17 28  1  0
 17 29  1  0
 17 30  1  0
M  END
>  <ALOGPS_LOGP>  (1) 
1.19

>  <ALOGPS_LOGS>  (1) 
-3.01

>  <ALOGPS_SOLUBILITY>  (1) 
2.24e-01 g/l

>  <DATABASE_ID>  (1) 
DB01247

>  <DATABASE_NAME>  (1) 
drugbank

>  <DRUGBANK_ID>  (1) 
DB01247

>  <DRUG_GROUPS>  (1) 
approved

>  <EXACT_MASS>  (1) 
231.100776675

>  <FORMULA>  (1) 
C12H13N3O2

>  <GENERIC_NAME>  (1) 
Isocarboxazid

>  <INCHI_IDENTIFIER>  (1) 
InChI=1S/C12H13N3O2/c1-9-7-11(15-17-9)12(16)14-13-8-10-5-3-2-4-6-10/h2-7,13H,8H2,1H3,(H,14,16)

>  <INCHI_KEY>  (1) 
XKFPYPQQHFEXRZ-UHFFFAOYSA-N

>  <INTERNATIONAL_BRANDS>  (1) 
Enerzer; Isocarboxazid

>  <JCHEM_ACCEPTOR_COUNT>  (1) 
3

>  <JCHEM_AVERAGE_POLARIZABILITY>  (1) 
24.510960717633893

>  <JCHEM_BIOAVAILABILITY>  (1) 
1

>  <JCHEM_DONOR_COUNT>  (1) 
2

>  <JCHEM_FORMAL_CHARGE>  (1) 
0

>  <JCHEM_GHOSE_FILTER>  (1) 
1

>  <JCHEM_IUPAC>  (1) 
N'-benzyl-5-methyl-1,2-oxazole-3-carbohydrazide

>  <JCHEM_LOGP>  (1) 
1.4255166486666668

>  <JCHEM_MDDR_LIKE_RULE>  (1) 
0

>  <JCHEM_NUMBER_OF_RINGS>  (1) 
2

>  <JCHEM_PHYSIOLOGICAL_CHARGE>  (1) 
0

>  <JCHEM_PKA_STRONGEST_ACIDIC>  (1) 
12.021473156034329

>  <JCHEM_PKA_STRONGEST_BASIC>  (1) 
3.123385867616713

>  <JCHEM_POLAR_SURFACE_AREA>  (1) 
67.16

>  <JCHEM_REFRACTIVITY>  (1) 
74.78030000000001

>  <JCHEM_ROTATABLE_BOND_COUNT>  (1) 
4

>  <JCHEM_RULE_OF_FIVE>  (1) 
1

>  <JCHEM_TRADITIONAL_IUPAC>  (1) 
isocarboxazid

>  <JCHEM_VEBER_RULE>  (1) 
0

>  <MOLECULAR_WEIGHT>  (1) 
231.2505

>  <PRODUCTS>  (1) 
Marplan

>  <SECONDARY_ACCESSION_NUMBERS>  (1) 
APRD00701

>  <SMILES>  (1) 
CC1=CC(=NO1)C(=O)NNCC1=CC=CC=C1

>  <SYNONYMS>  (1) 
Isocarboxazida; Isocarboxazide; Isocarboxazidum

$$$$
