1145
     RDKit          2D

 41 42  0  0  1  0  0  0  0  0999 V2000
    3.0790    0.0000    0.0000 S   0  0  0  0  0  0  0  0  0  0  0  0
    2.3644   -4.5375    0.0000 S   0  0  0  0  0  0  0  0  0  0  0  0
    3.7934    4.5375    0.0000 S   0  0  0  0  0  0  0  0  0  0  0  0
    3.9040    0.0000    0.0000 O   0  0  0  0  0  0  0  0  0  0  0  0
    2.2540    0.0000    0.0000 O   0  0  0  0  0  0  0  0  0  0  0  0
    1.6500   -4.9500    0.0000 O   0  0  0  0  0  0  0  0  0  0  0  0
    4.5079    4.9500    0.0000 O   0  0  0  0  0  0  0  0  0  0  0  0
    3.0790   -4.9500    0.0000 O   0  0  0  0  0  0  0  0  0  0  0  0
    3.0790    4.9500    0.0000 O   0  0  0  0  0  0  0  0  0  0  0  0
    3.0790   -3.3000    0.0000 N   0  0  0  0  0  0  0  0  0  0  0  0
    3.0790    3.3000    0.0000 N   0  0  0  0  0  0  0  0  0  0  0  0
    3.0790   -0.8250    0.0000 C   0  0  0  0  0  0  0  0  0  0  0  0
    3.0790    0.8250    0.0000 C   0  0  0  0  0  0  0  0  0  0  0  0
    2.3644   -1.2375    0.0000 C   0  0  0  0  0  0  0  0  0  0  0  0
    3.7934    1.2375    0.0000 C   0  0  0  0  0  0  0  0  0  0  0  0
    3.7934   -1.2375    0.0000 C   0  0  0  0  0  0  0  0  0  0  0  0
    2.3644    1.2375    0.0000 C   0  0  0  0  0  0  0  0  0  0  0  0
    3.0790   -2.4750    0.0000 C   0  0  0  0  0  0  0  0  0  0  0  0
    3.0790    2.4750    0.0000 C   0  0  0  0  0  0  0  0  0  0  0  0
    2.3644   -2.0625    0.0000 C   0  0  0  0  0  0  0  0  0  0  0  0
    3.7934    2.0625    0.0000 C   0  0  0  0  0  0  0  0  0  0  0  0
    3.7934   -2.0625    0.0000 C   0  0  0  0  0  0  0  0  0  0  0  0
    2.3644    2.0625    0.0000 C   0  0  0  0  0  0  0  0  0  0  0  0
    2.3644   -3.7125    0.0000 C   0  0  0  0  0  0  0  0  0  0  0  0
    3.7934    3.7125    0.0000 C   0  0  0  0  0  0  0  0  0  0  0  0
    0.0000    0.0000    0.0000 H   0  0  0  0  0  0  0  0  0  0  0  0
    0.0000    0.0000    0.0000 H   0  0  0  0  0  0  0  0  0  0  0  0
    0.0000    0.0000    0.0000 H   0  0  0  0  0  0  0  0  0  0  0  0
    0.0000    0.0000    0.0000 H   0  0  0  0  0  0  0  0  0  0  0  0
    0.0000    0.0000    0.0000 H   0  0  0  0  0  0  0  0  0  0  0  0
    0.0000    0.0000    0.0000 H   0  0  0  0  0  0  0  0  0  0  0  0
    0.0000    0.0000    0.0000 H   0  0  0  0  0  0  0  0  0  0  0  0
    0.0000    0.0000    0.0000 H   0  0  0  0  0  0  0  0  0  0  0  0
    0.0000    0.0000    0.0000 H   0  0  0  0  0  0  0  0  0  0  0  0
    0.0000    0.0000    0.0000 H   0  0  0  0  0  0  0  0  0  0  0  0
    0.0000    0.0000    0.0000 H   0  0  0  0  0  0  0  0  0  0  0  0
    0.0000    0.0000    0.0000 H   0  0  0  0  0  0  0  0  0  0  0  0
    0.0000    0.0000    0.0000 H   0  0  0  0  0  0  0  0  0  0  0  0
    0.0000    0.0000    0.0000 H   0  0  0  0  0  0  0  0  0  0  0  0
    0.0000    0.0000    0.0000 H   0  0  0  0  0  0  0  0  0  0  0  0
    0.0000    0.0000    0.0000 H   0  0  0  0  0  0  0  0  0  0  0  0
  1  4  2  0
  1  5  2  0
  1 12  1  0
  1 13  1  0
  2  6  1  0
  2  8  2  0
  2 24  1  0
  3  7  1  0
  3  9  2  0
  3 25  1  0
 10 18  1  0
 10 24  1  0
 11 19  1  0
 11 25  1  0
 12 14  2  0
 12 16  1  0
 13 15  2  0
 13 17  1  0
 14 20  1  0
 15 21  1  0
 16 22  2  0
 17 23  2  0
 18 20  2  0
 18 22  1  0
 19 21  2  0
 19 23  1  0
  6 26  1  0
  7 27  1  0
 10 28  1  0
 11 29  1  0
 14 30  1  0
 15 31  1  0
 16 32  1  0
 17 33  1  0
 20 34  1  0
 21 35  1  0
 22 36  1  0
 23 37  1  0
 24 38  1  0
 24 39  1  0
 25 40  1  0
 25 41  1  0
M  END
>  <ALOGPS_LOGP>  (1) 
1.38

>  <ALOGPS_LOGS>  (1) 
-2.19

>  <ALOGPS_SOLUBILITY>  (1) 
2.63e+00 g/l

>  <DATABASE_ID>  (1) 
DB01145

>  <DATABASE_NAME>  (1) 
drugbank

>  <DRUGBANK_ID>  (1) 
DB01145

>  <DRUG_GROUPS>  (1) 
approved

>  <EXACT_MASS>  (1) 
404.017048324

>  <FORMULA>  (1) 
C14H16N2O6S3

>  <GENERIC_NAME>  (1) 
Sulfoxone

>  <INCHI_IDENTIFIER>  (1) 
InChI=1S/C14H16N2O6S3/c17-23(18)9-15-11-1-5-13(6-2-11)25(21,22)14-7-3-12(4-8-14)16-10-24(19)20/h1-8,15-16H,9-10H2,(H,17,18)(H,19,20)

>  <INCHI_KEY>  (1) 
NEDPPCHNEOMTJV-UHFFFAOYSA-N

>  <JCHEM_ACCEPTOR_COUNT>  (1) 
8

>  <JCHEM_AVERAGE_POLARIZABILITY>  (1) 
38.809354275958384

>  <JCHEM_BIOAVAILABILITY>  (1) 
1

>  <JCHEM_DONOR_COUNT>  (1) 
4

>  <JCHEM_FORMAL_CHARGE>  (1) 
0

>  <JCHEM_GHOSE_FILTER>  (1) 
1

>  <JCHEM_IUPAC>  (1) 
[(4-{4-[(sulfinomethyl)amino]benzenesulfonyl}phenyl)amino]methanesulfinic acid

>  <JCHEM_LOGP>  (1) 
-1.032958323181652

>  <JCHEM_MDDR_LIKE_RULE>  (1) 
0

>  <JCHEM_NUMBER_OF_RINGS>  (1) 
2

>  <JCHEM_PHYSIOLOGICAL_CHARGE>  (1) 
-2

>  <JCHEM_PKA>  (1) 
-0.8530723605179844

>  <JCHEM_PKA_STRONGEST_ACIDIC>  (1) 
-1.4567201549425102

>  <JCHEM_PKA_STRONGEST_BASIC>  (1) 
-0.05637101406165712

>  <JCHEM_POLAR_SURFACE_AREA>  (1) 
132.8

>  <JCHEM_REFRACTIVITY>  (1) 
96.95240000000003

>  <JCHEM_ROTATABLE_BOND_COUNT>  (1) 
8

>  <JCHEM_RULE_OF_FIVE>  (1) 
1

>  <JCHEM_TRADITIONAL_IUPAC>  (1) 
sulfoxone

>  <JCHEM_VEBER_RULE>  (1) 
0

>  <MOLECULAR_WEIGHT>  (1) 
404.482

>  <SALTS>  (1) 
Sulfoxone sodium

>  <SECONDARY_ACCESSION_NUMBERS>  (1) 
APRD00704

>  <SMILES>  (1) 
OS(=O)CNC1=CC=C(C=C1)S(=O)(=O)C1=CC=C(NCS(O)=O)C=C1

>  <SYNONYMS>  (1) 
Aldesulfone; Aldesulphone

$$$$
