1320
     RDKit          2D

 40 42  0  0  0  0  0  0  0  0999 V2000
    6.9218    1.8428    0.0000 P   0  0  0  0  0  0  0  0  0  0  0  0
    5.4110   -0.9262    0.0000 O   0  0  0  0  0  0  0  0  0  0  0  0
    6.1371    1.5878    0.0000 O   0  0  0  0  0  0  0  0  0  0  0  0
    4.5135    1.8358    0.0000 O   0  0  0  0  0  0  0  0  0  0  0  0
    6.6668    2.6274    0.0000 O   0  0  0  0  0  0  0  0  0  0  0  0
    7.7064    2.0978    0.0000 O   0  0  0  0  0  0  0  0  0  0  0  0
    7.1768    1.0582    0.0000 O   0  0  0  0  0  0  0  0  0  0  0  0
    3.8461    0.5259    0.0000 N   0  0  0  0  0  0  0  0  0  0  0  0
    5.1809    0.5259    0.0000 N   0  0  0  0  0  0  0  0  0  0  0  0
    4.1010   -0.2587    0.0000 C   0  0  0  0  0  0  0  0  0  0  0  0
    4.9260   -0.2587    0.0000 C   0  0  0  0  0  0  0  0  0  0  0  0
    4.1010   -1.0837    0.0000 C   0  0  0  0  0  0  0  0  0  0  0  0
    3.2840   -0.3735    0.0000 C   0  0  0  0  0  0  0  0  0  0  0  0
    4.5135    1.0108    0.0000 C   0  0  0  0  0  0  0  0  0  0  0  0
    5.9656    0.7809    0.0000 C   0  0  0  0  0  0  0  0  0  0  0  0
    4.8155   -1.4963    0.0000 C   0  0  0  0  0  0  0  0  0  0  0  0
    2.9749   -1.1385    0.0000 C   0  0  0  0  0  0  0  0  0  0  0  0
    3.3865   -1.4963    0.0000 C   0  0  0  0  0  0  0  0  0  0  0  0
    2.7761    0.2765    0.0000 C   0  0  0  0  0  0  0  0  0  0  0  0
    4.8155   -2.3213    0.0000 C   0  0  0  0  0  0  0  0  0  0  0  0
    2.1580   -1.2533    0.0000 C   0  0  0  0  0  0  0  0  0  0  0  0
    3.3865   -2.3213    0.0000 C   0  0  0  0  0  0  0  0  0  0  0  0
    1.9591    0.1618    0.0000 C   0  0  0  0  0  0  0  0  0  0  0  0
    4.1010   -2.7338    0.0000 C   0  0  0  0  0  0  0  0  0  0  0  0
    1.6500   -0.6032    0.0000 C   0  0  0  0  0  0  0  0  0  0  0  0
    0.0000    0.0000    0.0000 H   0  0  0  0  0  0  0  0  0  0  0  0
    0.0000    0.0000    0.0000 H   0  0  0  0  0  0  0  0  0  0  0  0
    0.0000    0.0000    0.0000 H   0  0  0  0  0  0  0  0  0  0  0  0
    0.0000    0.0000    0.0000 H   0  0  0  0  0  0  0  0  0  0  0  0
    0.0000    0.0000    0.0000 H   0  0  0  0  0  0  0  0  0  0  0  0
    0.0000    0.0000    0.0000 H   0  0  0  0  0  0  0  0  0  0  0  0
    0.0000    0.0000    0.0000 H   0  0  0  0  0  0  0  0  0  0  0  0
    0.0000    0.0000    0.0000 H   0  0  0  0  0  0  0  0  0  0  0  0
    0.0000    0.0000    0.0000 H   0  0  0  0  0  0  0  0  0  0  0  0
    0.0000    0.0000    0.0000 H   0  0  0  0  0  0  0  0  0  0  0  0
    0.0000    0.0000    0.0000 H   0  0  0  0  0  0  0  0  0  0  0  0
    0.0000    0.0000    0.0000 H   0  0  0  0  0  0  0  0  0  0  0  0
    0.0000    0.0000    0.0000 H   0  0  0  0  0  0  0  0  0  0  0  0
    0.0000    0.0000    0.0000 H   0  0  0  0  0  0  0  0  0  0  0  0
    0.0000    0.0000    0.0000 H   0  0  0  0  0  0  0  0  0  0  0  0
  1  3  1  0
  1  5  1  0
  1  6  1  0
  1  7  2  0
  2 11  2  0
  3 15  1  0
  4 14  2  0
  8 10  1  0
  8 14  1  0
  9 11  1  0
  9 14  1  0
  9 15  1  0
 10 11  1  0
 10 12  1  0
 10 13  1  0
 12 16  2  0
 12 18  1  0
 13 17  2  0
 13 19  1  0
 16 20  1  0
 17 21  1  0
 18 22  2  0
 19 23  2  0
 20 24  2  0
 21 25  2  0
 22 24  1  0
 23 25  1  0
  5 26  1  0
  6 27  1  0
  8 28  1  0
 15 29  1  0
 15 30  1  0
 16 31  1  0
 17 32  1  0
 18 33  1  0
 19 34  1  0
 20 35  1  0
 21 36  1  0
 22 37  1  0
 23 38  1  0
 24 39  1  0
 25 40  1  0
M  END
>  <ALOGPS_LOGP>  (1) 
1.08

>  <ALOGPS_LOGS>  (1) 
-3.40

>  <ALOGPS_SOLUBILITY>  (1) 
1.45e-01 g/l

>  <DATABASE_ID>  (1) 
DB01320

>  <DATABASE_NAME>  (1) 
drugbank

>  <DRUGBANK_ID>  (1) 
DB01320

>  <DRUG_GROUPS>  (1) 
approved

>  <EXACT_MASS>  (1) 
362.066772734

>  <FORMULA>  (1) 
C16H15N2O6P

>  <GENERIC_NAME>  (1) 
Fosphenytoin

>  <INCHI_IDENTIFIER>  (1) 
InChI=1S/C16H15N2O6P/c19-14-16(12-7-3-1-4-8-12,13-9-5-2-6-10-13)17-15(20)18(14)11-24-25(21,22)23/h1-10H,11H2,(H,17,20)(H2,21,22,23)

>  <INCHI_KEY>  (1) 
XWLUWCNOOVRFPX-UHFFFAOYSA-N

>  <JCHEM_ACCEPTOR_COUNT>  (1) 
5

>  <JCHEM_AVERAGE_POLARIZABILITY>  (1) 
33.22664671818143

>  <JCHEM_BIOAVAILABILITY>  (1) 
1

>  <JCHEM_DONOR_COUNT>  (1) 
3

>  <JCHEM_FORMAL_CHARGE>  (1) 
0

>  <JCHEM_GHOSE_FILTER>  (1) 
1

>  <JCHEM_IUPAC>  (1) 
[(2,5-dioxo-4,4-diphenylimidazolidin-1-yl)methoxy]phosphonic acid

>  <JCHEM_LOGP>  (1) 
1.6680293453333337

>  <JCHEM_MDDR_LIKE_RULE>  (1) 
0

>  <JCHEM_NUMBER_OF_RINGS>  (1) 
3

>  <JCHEM_PHYSIOLOGICAL_CHARGE>  (1) 
-2

>  <JCHEM_PKA>  (1) 
6.057759222943897

>  <JCHEM_PKA_STRONGEST_ACIDIC>  (1) 
1.460741206613097

>  <JCHEM_PKA_STRONGEST_BASIC>  (1) 
-9.658399928883057

>  <JCHEM_POLAR_SURFACE_AREA>  (1) 
116.17

>  <JCHEM_REFRACTIVITY>  (1) 
87.05370000000003

>  <JCHEM_ROTATABLE_BOND_COUNT>  (1) 
5

>  <JCHEM_RULE_OF_FIVE>  (1) 
1

>  <JCHEM_TRADITIONAL_IUPAC>  (1) 
fosphenytoin

>  <JCHEM_VEBER_RULE>  (1) 
0

>  <MOLECULAR_WEIGHT>  (1) 
362.2739

>  <PRODUCTS>  (1) 
Cerebyx; Fosphenytoin; Fosphenytoin Sodium

>  <SALTS>  (1) 
Fosphenytoin sodium

>  <SMILES>  (1) 
OP(O)(=O)OCN1C(=O)NC(C1=O)(C1=CC=CC=C1)C1=CC=CC=C1

>  <SYNONYMS>  (1) 
Fosfenitoina; Fosphenytoine; Fosphenytoinum

$$$$
