1489
     RDKit          2D

 44 46  0  0  1  0  0  0  0  0999 V2000
    2.8172   -3.1025    0.0000 Cl  0  0  0  0  0  0  0  0  0  0  0  0
    4.1516    1.6159    0.0000 O   0  0  0  0  0  0  0  0  0  0  0  0
    2.6107    1.6159    0.0000 O   0  0  0  0  0  0  0  0  0  0  0  0
    5.4391    0.9959    0.0000 O   0  0  0  0  0  0  0  0  0  0  0  0
    2.4543    0.2276    0.0000 N   0  0  0  0  0  0  0  0  0  0  0  0
    4.3081    0.2276    0.0000 N   0  0  0  0  0  0  0  0  0  0  0  0
    5.3323    2.4209    0.0000 N   0  0  0  0  0  0  0  0  0  0  0  0
    2.6379   -0.5767    0.0000 C   0  0  0  0  0  0  0  0  0  0  0  0
    3.3812   -0.9346    0.0000 C   0  0  0  0  0  0  0  0  0  0  0  0
    4.1245   -0.5767    0.0000 C   0  0  0  0  0  0  0  0  0  0  0  0
    3.7937    0.8726    0.0000 C   0  0  0  0  0  0  0  0  0  0  0  0
    2.9687    0.8726    0.0000 C   0  0  0  0  0  0  0  0  0  0  0  0
    4.7695   -1.0911    0.0000 C   0  0  0  0  0  0  0  0  0  0  0  0
    1.9205   -1.0498    0.0000 C   0  0  0  0  0  0  0  0  0  0  0  0
    3.4586   -1.7905    0.0000 C   0  0  0  0  0  0  0  0  0  0  0  0
    1.6500    0.4112    0.0000 C   0  0  0  0  0  0  0  0  0  0  0  0
    1.9781   -1.9072    0.0000 C   0  0  0  0  0  0  0  0  0  0  0  0
    2.7524   -2.2801    0.0000 C   0  0  0  0  0  0  0  0  0  0  0  0
    5.5375   -0.7897    0.0000 C   0  0  0  0  0  0  0  0  0  0  0  0
    4.6466   -1.9069    0.0000 C   0  0  0  0  0  0  0  0  0  0  0  0
    6.1825   -1.3041    0.0000 C   0  0  0  0  0  0  0  0  0  0  0  0
    5.2915   -2.4213    0.0000 C   0  0  0  0  0  0  0  0  0  0  0  0
    4.9743    1.6776    0.0000 C   0  0  0  0  0  0  0  0  0  0  0  0
    6.0595   -2.1198    0.0000 C   0  0  0  0  0  0  0  0  0  0  0  0
    6.1550    2.4825    0.0000 C   0  0  0  0  0  0  0  0  0  0  0  0
    4.8676    3.1025    0.0000 C   0  0  0  0  0  0  0  0  0  0  0  0
    0.0000    0.0000    0.0000 H   0  0  0  0  0  0  0  0  0  0  0  0
    0.0000    0.0000    0.0000 H   0  0  0  0  0  0  0  0  0  0  0  0
    0.0000    0.0000    0.0000 H   0  0  0  0  0  0  0  0  0  0  0  0
    0.0000    0.0000    0.0000 H   0  0  0  0  0  0  0  0  0  0  0  0
    0.0000    0.0000    0.0000 H   0  0  0  0  0  0  0  0  0  0  0  0
    0.0000    0.0000    0.0000 H   0  0  0  0  0  0  0  0  0  0  0  0
    0.0000    0.0000    0.0000 H   0  0  0  0  0  0  0  0  0  0  0  0
    0.0000    0.0000    0.0000 H   0  0  0  0  0  0  0  0  0  0  0  0
    0.0000    0.0000    0.0000 H   0  0  0  0  0  0  0  0  0  0  0  0
    0.0000    0.0000    0.0000 H   0  0  0  0  0  0  0  0  0  0  0  0
    0.0000    0.0000    0.0000 H   0  0  0  0  0  0  0  0  0  0  0  0
    0.0000    0.0000    0.0000 H   0  0  0  0  0  0  0  0  0  0  0  0
    0.0000    0.0000    0.0000 H   0  0  0  0  0  0  0  0  0  0  0  0
    0.0000    0.0000    0.0000 H   0  0  0  0  0  0  0  0  0  0  0  0
    0.0000    0.0000    0.0000 H   0  0  0  0  0  0  0  0  0  0  0  0
    0.0000    0.0000    0.0000 H   0  0  0  0  0  0  0  0  0  0  0  0
    0.0000    0.0000    0.0000 H   0  0  0  0  0  0  0  0  0  0  0  0
    0.0000    0.0000    0.0000 H   0  0  0  0  0  0  0  0  0  0  0  0
  1 18  1  0
  2 11  1  0
  2 23  1  0
  3 12  2  0
  4 23  2  0
  5  8  1  0
  5 12  1  0
  5 16  1  0
  6 10  2  0
  6 11  1  0
  7 23  1  0
  7 25  1  0
  7 26  1  0
  8  9  2  0
  8 14  1  0
  9 10  1  0
  9 15  1  0
 10 13  1  0
 11 12  1  0
 13 19  2  0
 13 20  1  0
 14 17  2  0
 15 18  2  0
 17 18  1  0
 19 21  1  0
 20 22  2  0
 21 24  2  0
 22 24  1  0
 11 27  1  0
 14 28  1  0
 15 29  1  0
 16 30  1  0
 16 31  1  0
 16 32  1  0
 17 33  1  0
 19 34  1  0
 20 35  1  0
 21 36  1  0
 22 37  1  0
 24 38  1  0
 25 39  1  0
 25 40  1  0
 25 41  1  0
 26 42  1  0
 26 43  1  0
 26 44  1  0
M  END
>  <ALOGPS_LOGP>  (1) 
2.48

>  <ALOGPS_LOGS>  (1) 
-4.31

>  <ALOGPS_SOLUBILITY>  (1) 
1.82e-02 g/l

>  <DATABASE_ID>  (1) 
DB01489

>  <DATABASE_NAME>  (1) 
drugbank

>  <DRUGBANK_ID>  (1) 
DB01489

>  <DRUG_GROUPS>  (1) 
approved; illicit

>  <EXACT_MASS>  (1) 
371.103669164

>  <FORMULA>  (1) 
C19H18ClN3O3

>  <GENERIC_NAME>  (1) 
Camazepam

>  <INCHI_IDENTIFIER>  (1) 
InChI=1S/C19H18ClN3O3/c1-22(2)19(25)26-17-18(24)23(3)15-10-9-13(20)11-14(15)16(21-17)12-7-5-4-6-8-12/h4-11,17H,1-3H3

>  <INCHI_KEY>  (1) 
PXBVEXGRHZFEOF-UHFFFAOYSA-N

>  <INTERNATIONAL_BRANDS>  (1) 
Albego; Limpidon; Paxor 

>  <JCHEM_ACCEPTOR_COUNT>  (1) 
3

>  <JCHEM_AVERAGE_POLARIZABILITY>  (1) 
38.05206880006148

>  <JCHEM_BIOAVAILABILITY>  (1) 
1

>  <JCHEM_DONOR_COUNT>  (1) 
0

>  <JCHEM_FORMAL_CHARGE>  (1) 
0

>  <JCHEM_GHOSE_FILTER>  (1) 
1

>  <JCHEM_IUPAC>  (1) 
7-chloro-1-methyl-2-oxo-5-phenyl-2,3-dihydro-1H-1,4-benzodiazepin-3-yl N,N-dimethylcarbamate

>  <JCHEM_LOGP>  (1) 
3.3422788883333334

>  <JCHEM_MDDR_LIKE_RULE>  (1) 
0

>  <JCHEM_NUMBER_OF_RINGS>  (1) 
3

>  <JCHEM_PHYSIOLOGICAL_CHARGE>  (1) 
0

>  <JCHEM_PKA_STRONGEST_BASIC>  (1) 
-1.6538528375664105

>  <JCHEM_POLAR_SURFACE_AREA>  (1) 
62.21000000000001

>  <JCHEM_REFRACTIVITY>  (1) 
98.63190000000003

>  <JCHEM_ROTATABLE_BOND_COUNT>  (1) 
3

>  <JCHEM_RULE_OF_FIVE>  (1) 
1

>  <JCHEM_TRADITIONAL_IUPAC>  (1) 
camazepam

>  <JCHEM_VEBER_RULE>  (1) 
0

>  <MOLECULAR_WEIGHT>  (1) 
371.818

>  <SMILES>  (1) 
CN(C)C(=O)OC1N=C(C2=CC=CC=C2)C2=C(C=CC(Cl)=C2)N(C)C1=O

$$$$
