1156
     RDKit          2D

 34 34  0  0  1  0  0  0  0  0999 V2000
    1.6500   -2.4198    0.0000 Cl  0  0  0  0  0  0  0  0  0  0  0  0
    2.3645    0.4678    0.0000 O   0  0  0  0  0  0  0  0  0  0  0  0
    3.7935    1.2928    0.0000 N   0  0  0  0  0  0  0  0  0  0  0  0
    4.5080    1.7053    0.0000 C   0  0  0  0  0  0  0  0  0  0  0  0
    3.7935    0.4678    0.0000 C   0  0  0  0  0  0  0  0  0  0  0  0
    5.2224    2.1178    0.0000 C   0  0  0  0  0  0  0  0  0  0  0  0
    4.0955    2.4198    0.0000 C   0  0  0  0  0  0  0  0  0  0  0  0
    4.9205    0.9908    0.0000 C   0  0  0  0  0  0  0  0  0  0  0  0
    4.5080    0.0553    0.0000 C   0  0  0  0  0  0  0  0  0  0  0  0
    3.0791    0.0553    0.0000 C   0  0  0  0  0  0  0  0  0  0  0  0
    3.0791   -0.7697    0.0000 C   0  0  0  0  0  0  0  0  0  0  0  0
    2.3645   -1.1823    0.0000 C   0  0  0  0  0  0  0  0  0  0  0  0
    3.7935   -1.1823    0.0000 C   0  0  0  0  0  0  0  0  0  0  0  0
    2.3645   -2.0073    0.0000 C   0  0  0  0  0  0  0  0  0  0  0  0
    3.7935   -2.0073    0.0000 C   0  0  0  0  0  0  0  0  0  0  0  0
    3.0791   -2.4198    0.0000 C   0  0  0  0  0  0  0  0  0  0  0  0
    0.0000    0.0000    0.0000 H   0  0  0  0  0  0  0  0  0  0  0  0
    0.0000    0.0000    0.0000 H   0  0  0  0  0  0  0  0  0  0  0  0
    0.0000    0.0000    0.0000 H   0  0  0  0  0  0  0  0  0  0  0  0
    0.0000    0.0000    0.0000 H   0  0  0  0  0  0  0  0  0  0  0  0
    0.0000    0.0000    0.0000 H   0  0  0  0  0  0  0  0  0  0  0  0
    0.0000    0.0000    0.0000 H   0  0  0  0  0  0  0  0  0  0  0  0
    0.0000    0.0000    0.0000 H   0  0  0  0  0  0  0  0  0  0  0  0
    0.0000    0.0000    0.0000 H   0  0  0  0  0  0  0  0  0  0  0  0
    0.0000    0.0000    0.0000 H   0  0  0  0  0  0  0  0  0  0  0  0
    0.0000    0.0000    0.0000 H   0  0  0  0  0  0  0  0  0  0  0  0
    0.0000    0.0000    0.0000 H   0  0  0  0  0  0  0  0  0  0  0  0
    0.0000    0.0000    0.0000 H   0  0  0  0  0  0  0  0  0  0  0  0
    0.0000    0.0000    0.0000 H   0  0  0  0  0  0  0  0  0  0  0  0
    0.0000    0.0000    0.0000 H   0  0  0  0  0  0  0  0  0  0  0  0
    0.0000    0.0000    0.0000 H   0  0  0  0  0  0  0  0  0  0  0  0
    0.0000    0.0000    0.0000 H   0  0  0  0  0  0  0  0  0  0  0  0
    0.0000    0.0000    0.0000 H   0  0  0  0  0  0  0  0  0  0  0  0
    0.0000    0.0000    0.0000 H   0  0  0  0  0  0  0  0  0  0  0  0
  1 14  1  0
  2 10  2  0
  3  4  1  0
  3  5  1  0
  4  6  1  0
  4  7  1  0
  4  8  1  0
  5  9  1  0
  5 10  1  0
 10 11  1  0
 11 12  2  0
 11 13  1  0
 12 14  1  0
 13 15  2  0
 14 16  2  0
 15 16  1  0
  3 17  1  0
  5 18  1  0
  6 19  1  0
  6 20  1  0
  6 21  1  0
  7 22  1  0
  7 23  1  0
  7 24  1  0
  8 25  1  0
  8 26  1  0
  8 27  1  0
  9 28  1  0
  9 29  1  0
  9 30  1  0
 12 31  1  0
 13 32  1  0
 15 33  1  0
 16 34  1  0
M  END
>  <ALOGPS_LOGP>  (1) 
3.28

>  <ALOGPS_LOGS>  (1) 
-3.54

>  <ALOGPS_SOLUBILITY>  (1) 
6.93e-02 g/l

>  <DATABASE_ID>  (1) 
DB01156

>  <DATABASE_NAME>  (1) 
drugbank

>  <DRUGBANK_ID>  (1) 
DB01156

>  <DRUG_GROUPS>  (1) 
approved

>  <EXACT_MASS>  (1) 
239.10769191

>  <FORMULA>  (1) 
C13H18ClNO

>  <GENERIC_NAME>  (1) 
Bupropion

>  <INCHI_IDENTIFIER>  (1) 
InChI=1S/C13H18ClNO/c1-9(15-13(2,3)4)12(16)10-6-5-7-11(14)8-10/h5-9,15H,1-4H3

>  <INCHI_KEY>  (1) 
SNPPWIUOZRMYNY-UHFFFAOYSA-N

>  <INTERNATIONAL_BRANDS>  (1) 
Elontril; Forfivo; Prexaton; Voxra

>  <JCHEM_ACCEPTOR_COUNT>  (1) 
2

>  <JCHEM_AVERAGE_POLARIZABILITY>  (1) 
25.925829770522174

>  <JCHEM_BIOAVAILABILITY>  (1) 
1

>  <JCHEM_DONOR_COUNT>  (1) 
1

>  <JCHEM_FORMAL_CHARGE>  (1) 
0

>  <JCHEM_GHOSE_FILTER>  (1) 
1

>  <JCHEM_IUPAC>  (1) 
2-(tert-butylamino)-1-(3-chlorophenyl)propan-1-one

>  <JCHEM_LOGP>  (1) 
3.2661124519999998

>  <JCHEM_MDDR_LIKE_RULE>  (1) 
0

>  <JCHEM_NUMBER_OF_RINGS>  (1) 
1

>  <JCHEM_PHYSIOLOGICAL_CHARGE>  (1) 
1

>  <JCHEM_PKA_STRONGEST_ACIDIC>  (1) 
18.28641838207084

>  <JCHEM_PKA_STRONGEST_BASIC>  (1) 
8.215779524538618

>  <JCHEM_POLAR_SURFACE_AREA>  (1) 
29.1

>  <JCHEM_REFRACTIVITY>  (1) 
67.69940000000001

>  <JCHEM_ROTATABLE_BOND_COUNT>  (1) 
4

>  <JCHEM_RULE_OF_FIVE>  (1) 
1

>  <JCHEM_TRADITIONAL_IUPAC>  (1) 
bupropion

>  <JCHEM_VEBER_RULE>  (1) 
1

>  <MOLECULAR_WEIGHT>  (1) 
239.741

>  <PRODUCTS>  (1) 
Act Bupropion XL; Aplenzin; Aplenzin ER; Appbutamone; Appbutamone-D; Ava-bupropion SR; BuPROPion Hydrochloride; Budeprion; Budeprion SR; Budeprion XL; Budeprion XL XL; Buproban; Bupropion; Bupropion HCl SR; Bupropion HCl XL; Bupropion Hydrochloride; Bupropion Hydrochloride (SR); Bupropion Hydrochloride (XL); Bupropion Hydrochloride (sr); Bupropion Hydrochloride (xl); Bupropion Hydrochloride ER; Bupropion Hydrochloride Extended Release (XL); Bupropion Hydrochloride Extended Release SR; Bupropion Hydrochloride SR; Bupropion Hydrochloride SR (SR); Bupropion Hydrochloride XL; Bupropion HydrochlorideXL XL; Bupropion Hydrocloride; Bupropion SR; Bupropion hydrochloride; Bupropion hydrochloride (XL); Contrave; Contrave Extended-Release; Dom-bupropion SR; Forfivo XL; Mylan-bupropion XL; Novo-bupropion SR; Novo-bupropion SR Tablets; PHL-bupropion SR; PMS-bupropion SR; Ratio-bupropion SR; Sandoz Bupropion SR; Wellbutrin; Wellbutrin SR; Wellbutrin XL; Wellbutrin XL XL; Zyban; bupropion Hydrochloride

>  <SALTS>  (1) 
Bupropion hydrobromide; Bupropion hydrochloride

>  <SECONDARY_ACCESSION_NUMBERS>  (1) 
APRD00621

>  <SMILES>  (1) 
CC(NC(C)(C)C)C(=O)C1=CC(Cl)=CC=C1

>  <SYNONYMS>  (1) 
Amfebutamone

$$$$
