
     RDKit          2D

 54 54  0  0  0  0  0  0  0  0999 V2000
   -2.5006    3.0937    0.0000 C   0  0  0  0  0  0  0  0  0  0  0  0
   -3.9295   -1.8562    0.0000 C   0  0  0  0  0  0  0  0  0  0  0  0
   -3.9295   -0.2062    0.0000 C   0  0  0  0  0  0  0  0  0  0  0  0
    0.3572   -2.6812    0.0000 C   0  0  0  0  0  0  0  0  0  0  0  0
    3.2151   -1.8562    0.0000 C   0  0  0  0  0  0  0  0  0  0  0  0
   -2.5006    2.2687    0.0000 C   0  0  0  0  0  0  0  0  0  0  0  0
   -3.2151   -1.4437    0.0000 C   0  0  0  0  0  0  0  0  0  0  0  0
    0.3572   -1.8562    0.0000 C   0  0  0  0  0  0  0  0  0  0  0  0
    2.5006   -1.4437    0.0000 C   0  0  0  0  0  0  0  0  0  0  0  0
   -1.0717   -0.2062    0.0000 C   0  0  0  0  0  0  0  0  0  0  0  0
   -1.0717    0.6187    0.0000 C   0  0  0  0  0  0  0  0  0  0  0  0
   -1.7861   -0.6187    0.0000 C   0  0  0  0  0  0  0  0  0  0  0  0
   -2.5006    0.6187    0.0000 C   0  0  0  0  0  0  0  0  0  0  0  0
   -1.7861    1.0312    0.0000 C   0  0  0  0  0  0  0  0  0  0  0  0
   -2.5006   -0.2062    0.0000 C   0  0  0  0  0  0  0  0  0  0  0  0
    1.0717   -1.4437    0.0000 C   0  0  0  0  0  0  0  0  0  0  0  0
    1.7861   -1.8562    0.0000 C   0  0  0  0  0  0  0  0  0  0  0  0
   -0.3572   -0.6187    0.0000 C   0  0  0  0  0  0  0  0  0  0  0  0
   -0.3572    1.0312    0.0000 I   0  0  0  0  0  0  0  0  0  0  0  0
   -1.7861   -1.4437    0.0000 I   0  0  0  0  0  0  0  0  0  0  0  0
   -3.2151    1.0312    0.0000 I   0  0  0  0  0  0  0  0  0  0  0  0
   -1.7861    1.8562    0.0000 N   0  0  0  0  0  0  0  0  0  0  0  0
   -0.3572   -1.4437    0.0000 N   0  0  0  0  0  0  0  0  0  0  0  0
   -3.2151   -0.6187    0.0000 N   0  0  0  0  0  0  0  0  0  0  0  0
   -0.3572   -3.0937    0.0000 O   0  0  0  0  0  0  0  0  0  0  0  0
    3.9295   -1.4437    0.0000 O   0  0  0  0  0  0  0  0  0  0  0  0
   -3.2151    1.8562    0.0000 O   0  0  0  0  0  0  0  0  0  0  0  0
   -2.5006   -1.8562    0.0000 O   0  0  0  0  0  0  0  0  0  0  0  0
    2.5006   -0.6187    0.0000 O   0  0  0  0  0  0  0  0  0  0  0  0
    1.0717   -0.6187    0.0000 O   0  0  0  0  0  0  0  0  0  0  0  0
    1.7861   -2.6812    0.0000 O   0  0  0  0  0  0  0  0  0  0  0  0
    0.3572   -0.2062    0.0000 O   0  0  0  0  0  0  0  0  0  0  0  0
    0.0000    0.0000    0.0000 H   0  0  0  0  0  0  0  0  0  0  0  0
    0.0000    0.0000    0.0000 H   0  0  0  0  0  0  0  0  0  0  0  0
    0.0000    0.0000    0.0000 H   0  0  0  0  0  0  0  0  0  0  0  0
    0.0000    0.0000    0.0000 H   0  0  0  0  0  0  0  0  0  0  0  0
    0.0000    0.0000    0.0000 H   0  0  0  0  0  0  0  0  0  0  0  0
    0.0000    0.0000    0.0000 H   0  0  0  0  0  0  0  0  0  0  0  0
    0.0000    0.0000    0.0000 H   0  0  0  0  0  0  0  0  0  0  0  0
    0.0000    0.0000    0.0000 H   0  0  0  0  0  0  0  0  0  0  0  0
    0.0000    0.0000    0.0000 H   0  0  0  0  0  0  0  0  0  0  0  0
    0.0000    0.0000    0.0000 H   0  0  0  0  0  0  0  0  0  0  0  0
    0.0000    0.0000    0.0000 H   0  0  0  0  0  0  0  0  0  0  0  0
    0.0000    0.0000    0.0000 H   0  0  0  0  0  0  0  0  0  0  0  0
    0.0000    0.0000    0.0000 H   0  0  0  0  0  0  0  0  0  0  0  0
    0.0000    0.0000    0.0000 H   0  0  0  0  0  0  0  0  0  0  0  0
    0.0000    0.0000    0.0000 H   0  0  0  0  0  0  0  0  0  0  0  0
    0.0000    0.0000    0.0000 H   0  0  0  0  0  0  0  0  0  0  0  0
    0.0000    0.0000    0.0000 H   0  0  0  0  0  0  0  0  0  0  0  0
    0.0000    0.0000    0.0000 H   0  0  0  0  0  0  0  0  0  0  0  0
    0.0000    0.0000    0.0000 H   0  0  0  0  0  0  0  0  0  0  0  0
    0.0000    0.0000    0.0000 H   0  0  0  0  0  0  0  0  0  0  0  0
    0.0000    0.0000    0.0000 H   0  0  0  0  0  0  0  0  0  0  0  0
    0.0000    0.0000    0.0000 H   0  0  0  0  0  0  0  0  0  0  0  0
  6  1  1  0
  7  2  1  0
  8  4  1  1
  9  5  1  1
 11 10  2  0
 12 10  1  0
 14 11  1  0
 14 13  2  0
 15 12  2  0
 15 13  1  0
 16  8  1  0
 17  9  1  0
 17 16  1  0
 18 10  1  0
 19 11  1  0
 20 12  1  0
 21 13  1  0
 22  6  2  3
 22 14  1  0
  8 23  1  0
 23 18  2  3
 24  3  1  0
 24  7  1  0
 24 15  1  0
 25  4  2  0
 26  5  1  0
 27  6  1  0
 28  7  2  0
  9 29  1  0
 16 30  1  1
 17 31  1  6
 18 32  1  0
  1 33  1  0
  1 34  1  0
  1 35  1  0
  2 36  1  0
  2 37  1  0
  2 38  1  0
  3 39  1  0
  3 40  1  0
  3 41  1  0
  4 42  1  0
  5 43  1  0
  5 44  1  0
  8 45  1  0
  9 46  1  0
 16 47  1  0
 17 48  1  0
 26 49  1  0
 27 50  1  0
 29 51  1  0
 30 52  1  0
 31 53  1  0
 32 54  1  0
M  END
>  <ALOGPS_LOGP>  (1) 
-0.40

>  <ALOGPS_LOGS>  (1) 
-3.94

>  <ALOGPS_SOLUBILITY>  (1) 
9.11e-02 g/l

>  <DATABASE_ID>  (1) 
DB01578

>  <DATABASE_NAME>  (1) 
drugbank

>  <DRUGBANK_ID>  (1) 
DB01578

>  <DRUG_GROUPS>  (1) 
approved

>  <EXACT_MASS>  (1) 
788.8541

>  <FORMULA>  (1) 
C18H22I3N3O8

>  <GENERIC_NAME>  (1) 
Metrizamide

>  <INCHI_IDENTIFIER>  (1) 
InChI=1S/C18H22I3N3O8/c1-6(27)22-14-11(19)10(12(20)15(13(14)21)24(3)7(2)28)18(32)23-8(4-25)16(30)17(31)9(29)5-26/h4,8-9,16-17,26,29-31H,5H2,1-3H3,(H,22,27)(H,23,32)/t8-,9+,16+,17+/m0/s1

>  <INCHI_KEY>  (1) 
DTZMSDADRKLCQE-RFMXWLSYSA-N

>  <JCHEM_ACCEPTOR_COUNT>  (1) 
10

>  <JCHEM_ATOM_COUNT>  (1) 
54

>  <JCHEM_AVERAGE_POLARIZABILITY>  (1) 
56.29965562092195

>  <JCHEM_BIOAVAILABILITY>  (1) 
0

>  <JCHEM_DONOR_COUNT>  (1) 
6

>  <JCHEM_FORMAL_CHARGE>  (1) 
0

>  <JCHEM_GHOSE_FILTER>  (1) 
0

>  <JCHEM_IUPAC>  (1) 
3-[(1-hydroxyethylidene)amino]-2,4,6-triiodo-5-(N-methylacetamido)-N-[(2R,3R,4S,5R)-3,4,5,6-tetrahydroxy-1-oxohexan-2-yl]benzene-1-carboximidic acid

>  <JCHEM_LOGP>  (1) 
0.6711597173333333

>  <JCHEM_MDDR_LIKE_RULE>  (1) 
0

>  <JCHEM_NUMBER_OF_RINGS>  (1) 
1

>  <JCHEM_PHYSIOLOGICAL_CHARGE>  (1) 
0

>  <JCHEM_PKA>  (1) 
6.236666670738173

>  <JCHEM_PKA_STRONGEST_ACIDIC>  (1) 
4.495779881761928

>  <JCHEM_PKA_STRONGEST_BASIC>  (1) 
-0.18191931010296958

>  <JCHEM_POLAR_SURFACE_AREA>  (1) 
183.48

>  <JCHEM_REFRACTIVITY>  (1) 
143.3236000000001

>  <JCHEM_ROTATABLE_BOND_COUNT>  (1) 
9

>  <JCHEM_RULE_OF_FIVE>  (1) 
0

>  <JCHEM_TRADITIONAL_IUPAC>  (1) 
3-[(1-hydroxyethylidene)amino]-2,4,6-triiodo-5-(N-methylacetamido)-N-[(2R,3R,4S,5R)-3,4,5,6-tetrahydroxy-1-oxohexan-2-yl]benzenecarboximidic acid

>  <JCHEM_VEBER_RULE>  (1) 
0

>  <MOLECULAR_WEIGHT>  (1) 
789.1

>  <SMILES>  (1) 
[H][C@@](O)(CO)[C@@]([H])(O)[C@]([H])(O)[C@]([H])(C=O)N=C(O)C1=C(I)C(N=C(C)O)=C(I)C(N(C)C(C)=O)=C1I

$$$$
