1288
     RDKit          2D

 43 44  0  0  1  0  0  0  0  0999 V2000
    2.3645   -0.4125    0.0000 O   0  0  0  0  0  0  0  0  0  0  0  0
    1.6500   -3.3001    0.0000 O   0  0  0  0  0  0  0  0  0  0  0  0
    4.5080   -3.3001    0.0000 O   0  0  0  0  0  0  0  0  0  0  0  0
    7.3659    3.3001    0.0000 O   0  0  0  0  0  0  0  0  0  0  0  0
    3.7935    0.4125    0.0000 N   0  0  0  0  0  0  0  0  0  0  0  0
    4.5080    0.8250    0.0000 C   0  0  0  0  0  0  0  0  0  0  0  0
    4.5080    1.6500    0.0000 C   0  0  0  0  0  0  0  0  0  0  0  0
    3.7935   -0.4125    0.0000 C   0  0  0  0  0  0  0  0  0  0  0  0
    3.0791   -0.8250    0.0000 C   0  0  0  0  0  0  0  0  0  0  0  0
    5.2224    0.4125    0.0000 C   0  0  0  0  0  0  0  0  0  0  0  0
    5.2224    2.0625    0.0000 C   0  0  0  0  0  0  0  0  0  0  0  0
    3.0791   -1.6500    0.0000 C   0  0  0  0  0  0  0  0  0  0  0  0
    5.9370    1.6500    0.0000 C   0  0  0  0  0  0  0  0  0  0  0  0
    5.2224    2.8876    0.0000 C   0  0  0  0  0  0  0  0  0  0  0  0
    3.7935   -2.0625    0.0000 C   0  0  0  0  0  0  0  0  0  0  0  0
    2.3645   -2.0625    0.0000 C   0  0  0  0  0  0  0  0  0  0  0  0
    2.3645   -2.8876    0.0000 C   0  0  0  0  0  0  0  0  0  0  0  0
    3.7935   -2.8876    0.0000 C   0  0  0  0  0  0  0  0  0  0  0  0
    6.6515    2.0625    0.0000 C   0  0  0  0  0  0  0  0  0  0  0  0
    5.9370    3.3001    0.0000 C   0  0  0  0  0  0  0  0  0  0  0  0
    6.6515    2.8876    0.0000 C   0  0  0  0  0  0  0  0  0  0  0  0
    3.0791   -3.3001    0.0000 C   0  0  0  0  0  0  0  0  0  0  0  0
    0.0000    0.0000    0.0000 H   0  0  0  0  0  0  0  0  0  0  0  0
    0.0000    0.0000    0.0000 H   0  0  0  0  0  0  0  0  0  0  0  0
    0.0000    0.0000    0.0000 H   0  0  0  0  0  0  0  0  0  0  0  0
    0.0000    0.0000    0.0000 H   0  0  0  0  0  0  0  0  0  0  0  0
    0.0000    0.0000    0.0000 H   0  0  0  0  0  0  0  0  0  0  0  0
    0.0000    0.0000    0.0000 H   0  0  0  0  0  0  0  0  0  0  0  0
    0.0000    0.0000    0.0000 H   0  0  0  0  0  0  0  0  0  0  0  0
    0.0000    0.0000    0.0000 H   0  0  0  0  0  0  0  0  0  0  0  0
    0.0000    0.0000    0.0000 H   0  0  0  0  0  0  0  0  0  0  0  0
    0.0000    0.0000    0.0000 H   0  0  0  0  0  0  0  0  0  0  0  0
    0.0000    0.0000    0.0000 H   0  0  0  0  0  0  0  0  0  0  0  0
    0.0000    0.0000    0.0000 H   0  0  0  0  0  0  0  0  0  0  0  0
    0.0000    0.0000    0.0000 H   0  0  0  0  0  0  0  0  0  0  0  0
    0.0000    0.0000    0.0000 H   0  0  0  0  0  0  0  0  0  0  0  0
    0.0000    0.0000    0.0000 H   0  0  0  0  0  0  0  0  0  0  0  0
    0.0000    0.0000    0.0000 H   0  0  0  0  0  0  0  0  0  0  0  0
    0.0000    0.0000    0.0000 H   0  0  0  0  0  0  0  0  0  0  0  0
    0.0000    0.0000    0.0000 H   0  0  0  0  0  0  0  0  0  0  0  0
    0.0000    0.0000    0.0000 H   0  0  0  0  0  0  0  0  0  0  0  0
    0.0000    0.0000    0.0000 H   0  0  0  0  0  0  0  0  0  0  0  0
    0.0000    0.0000    0.0000 H   0  0  0  0  0  0  0  0  0  0  0  0
  1  9  1  0
  2 17  1  0
  3 18  1  0
  4 21  1  0
  5  6  1  0
  5  8  1  0
  6  7  1  0
  6 10  1  0
  7 11  1  0
  8  9  1  0
  9 12  1  0
 11 13  2  0
 11 14  1  0
 12 15  2  0
 12 16  1  0
 13 19  1  0
 14 20  2  0
 15 18  1  0
 16 17  2  0
 17 22  1  0
 18 22  2  0
 19 21  2  0
 20 21  1  0
  1 23  1  0
  2 24  1  0
  3 25  1  0
  4 26  1  0
  5 27  1  0
  6 28  1  0
  7 29  1  0
  7 30  1  0
  8 31  1  0
  8 32  1  0
  9 33  1  0
 10 34  1  0
 10 35  1  0
 10 36  1  0
 13 37  1  0
 14 38  1  0
 15 39  1  0
 16 40  1  0
 19 41  1  0
 20 42  1  0
 22 43  1  0
M  END
>  <ALOGPS_LOGP>  (1) 
1.36

>  <ALOGPS_LOGS>  (1) 
-3.27

>  <ALOGPS_SOLUBILITY>  (1) 
1.62e-01 g/l

>  <DATABASE_ID>  (1) 
DB01288

>  <DATABASE_NAME>  (1) 
drugbank

>  <DRUGBANK_ID>  (1) 
DB01288

>  <DRUG_GROUPS>  (1) 
approved; investigational

>  <EXACT_MASS>  (1) 
303.147058165

>  <FORMULA>  (1) 
C17H21NO4

>  <GENERIC_NAME>  (1) 
Fenoterol

>  <INCHI_IDENTIFIER>  (1) 
InChI=1S/C17H21NO4/c1-11(6-12-2-4-14(19)5-3-12)18-10-17(22)13-7-15(20)9-16(21)8-13/h2-5,7-9,11,17-22H,6,10H2,1H3

>  <INCHI_KEY>  (1) 
LSLYOANBFKQKPT-UHFFFAOYSA-N

>  <INTERNATIONAL_BRANDS>  (1) 
Alveofen; Berotec; Berotec N; Cenfenol; Partusisten

>  <JCHEM_ACCEPTOR_COUNT>  (1) 
5

>  <JCHEM_AVERAGE_POLARIZABILITY>  (1) 
31.751678012565648

>  <JCHEM_BIOAVAILABILITY>  (1) 
1

>  <JCHEM_DONOR_COUNT>  (1) 
5

>  <JCHEM_FORMAL_CHARGE>  (1) 
0

>  <JCHEM_GHOSE_FILTER>  (1) 
1

>  <JCHEM_IUPAC>  (1) 
5-(1-hydroxy-2-{[1-(4-hydroxyphenyl)propan-2-yl]amino}ethyl)benzene-1,3-diol

>  <JCHEM_LOGP>  (1) 
1.4733138523817904

>  <JCHEM_MDDR_LIKE_RULE>  (1) 
0

>  <JCHEM_NUMBER_OF_RINGS>  (1) 
2

>  <JCHEM_PHYSIOLOGICAL_CHARGE>  (1) 
1

>  <JCHEM_PKA>  (1) 
10.236044478004423

>  <JCHEM_PKA_STRONGEST_ACIDIC>  (1) 
8.845503395735152

>  <JCHEM_PKA_STRONGEST_BASIC>  (1) 
9.631407912741809

>  <JCHEM_POLAR_SURFACE_AREA>  (1) 
92.95

>  <JCHEM_REFRACTIVITY>  (1) 
84.9976

>  <JCHEM_ROTATABLE_BOND_COUNT>  (1) 
6

>  <JCHEM_RULE_OF_FIVE>  (1) 
1

>  <JCHEM_TRADITIONAL_IUPAC>  (1) 
fenoterol

>  <JCHEM_VEBER_RULE>  (1) 
0

>  <MOLECULAR_WEIGHT>  (1) 
303.3529

>  <PRODUCTS>  (1) 
Berotec 1mg/ml; Berotec Aem 100mcg/dose; Berotec Forte Metered Aer; Berotec Tab 2.5mg; Berotec Udv Inhalation Solution 0.25mg/ml; Berotec Udv Inhalation Soluton 0.625mg/ml; Duovent Udv

>  <SALTS>  (1) 
Fenoterol hydrobromide

>  <SMILES>  (1) 
CC(CC1=CC=C(O)C=C1)NCC(O)C1=CC(O)=CC(O)=C1

>  <SYNONYMS>  (1) 
Fenoterolum; Phenoterol

$$$$
