1091
     RDKit          2D

 51 53  0  0  1  0  0  0  0  0999 V2000
    5.2224    0.1367    0.0000 N   0  0  0  0  0  0  0  0  0  0  0  0
    2.3645   -2.3383    0.0000 C   0  0  0  0  0  0  0  0  0  0  0  0
    3.0791   -1.9258    0.0000 C   0  0  0  0  0  0  0  0  0  0  0  0
    1.6500   -2.7509    0.0000 C   0  0  0  0  0  0  0  0  0  0  0  0
    2.7770   -3.0528    0.0000 C   0  0  0  0  0  0  0  0  0  0  0  0
    1.9520   -1.6239    0.0000 C   0  0  0  0  0  0  0  0  0  0  0  0
    5.2224   -0.6883    0.0000 C   0  0  0  0  0  0  0  0  0  0  0  0
    4.5080   -1.1008    0.0000 C   0  0  0  0  0  0  0  0  0  0  0  0
    3.7935   -2.3383    0.0000 C   0  0  0  0  0  0  0  0  0  0  0  0
    3.0791   -1.1008    0.0000 C   0  0  0  0  0  0  0  0  0  0  0  0
    5.9370    0.5492    0.0000 C   0  0  0  0  0  0  0  0  0  0  0  0
    4.5080   -1.9258    0.0000 C   0  0  0  0  0  0  0  0  0  0  0  0
    3.7935   -0.6883    0.0000 C   0  0  0  0  0  0  0  0  0  0  0  0
    5.9370    1.3742    0.0000 C   0  0  0  0  0  0  0  0  0  0  0  0
    6.6515    1.7867    0.0000 C   0  0  0  0  0  0  0  0  0  0  0  0
    4.5080    0.5492    0.0000 C   0  0  0  0  0  0  0  0  0  0  0  0
    6.6515    2.6118    0.0000 C   0  0  0  0  0  0  0  0  0  0  0  0
    5.2224    1.7867    0.0000 C   0  0  0  0  0  0  0  0  0  0  0  0
    7.3889    1.3456    0.0000 C   0  0  0  0  0  0  0  0  0  0  0  0
    5.9370    3.0243    0.0000 C   0  0  0  0  0  0  0  0  0  0  0  0
    5.2224    2.6118    0.0000 C   0  0  0  0  0  0  0  0  0  0  0  0
    7.3889    3.0528    0.0000 C   0  0  0  0  0  0  0  0  0  0  0  0
    8.1365    1.7696    0.0000 C   0  0  0  0  0  0  0  0  0  0  0  0
    8.1365    2.6289    0.0000 C   0  0  0  0  0  0  0  0  0  0  0  0
    0.0000    0.0000    0.0000 H   0  0  0  0  0  0  0  0  0  0  0  0
    0.0000    0.0000    0.0000 H   0  0  0  0  0  0  0  0  0  0  0  0
    0.0000    0.0000    0.0000 H   0  0  0  0  0  0  0  0  0  0  0  0
    0.0000    0.0000    0.0000 H   0  0  0  0  0  0  0  0  0  0  0  0
    0.0000    0.0000    0.0000 H   0  0  0  0  0  0  0  0  0  0  0  0
    0.0000    0.0000    0.0000 H   0  0  0  0  0  0  0  0  0  0  0  0
    0.0000    0.0000    0.0000 H   0  0  0  0  0  0  0  0  0  0  0  0
    0.0000    0.0000    0.0000 H   0  0  0  0  0  0  0  0  0  0  0  0
    0.0000    0.0000    0.0000 H   0  0  0  0  0  0  0  0  0  0  0  0
    0.0000    0.0000    0.0000 H   0  0  0  0  0  0  0  0  0  0  0  0
    0.0000    0.0000    0.0000 H   0  0  0  0  0  0  0  0  0  0  0  0
    0.0000    0.0000    0.0000 H   0  0  0  0  0  0  0  0  0  0  0  0
    0.0000    0.0000    0.0000 H   0  0  0  0  0  0  0  0  0  0  0  0
    0.0000    0.0000    0.0000 H   0  0  0  0  0  0  0  0  0  0  0  0
    0.0000    0.0000    0.0000 H   0  0  0  0  0  0  0  0  0  0  0  0
    0.0000    0.0000    0.0000 H   0  0  0  0  0  0  0  0  0  0  0  0
    0.0000    0.0000    0.0000 H   0  0  0  0  0  0  0  0  0  0  0  0
    0.0000    0.0000    0.0000 H   0  0  0  0  0  0  0  0  0  0  0  0
    0.0000    0.0000    0.0000 H   0  0  0  0  0  0  0  0  0  0  0  0
    0.0000    0.0000    0.0000 H   0  0  0  0  0  0  0  0  0  0  0  0
    0.0000    0.0000    0.0000 H   0  0  0  0  0  0  0  0  0  0  0  0
    0.0000    0.0000    0.0000 H   0  0  0  0  0  0  0  0  0  0  0  0
    0.0000    0.0000    0.0000 H   0  0  0  0  0  0  0  0  0  0  0  0
    0.0000    0.0000    0.0000 H   0  0  0  0  0  0  0  0  0  0  0  0
    0.0000    0.0000    0.0000 H   0  0  0  0  0  0  0  0  0  0  0  0
    0.0000    0.0000    0.0000 H   0  0  0  0  0  0  0  0  0  0  0  0
    0.0000    0.0000    0.0000 H   0  0  0  0  0  0  0  0  0  0  0  0
  1  7  1  0
  1 11  1  0
  1 16  1  0
  2  3  1  0
  2  4  1  0
  2  5  1  0
  2  6  1  0
  3  9  2  0
  3 10  1  0
  7  8  1  0
  8 12  2  0
  8 13  1  0
  9 12  1  0
 10 13  2  0
 11 14  1  0
 14 15  1  0
 14 18  2  0
 15 17  2  0
 15 19  1  0
 17 20  1  0
 17 22  1  0
 18 21  1  0
 19 23  2  0
 20 21  2  0
 22 24  2  0
 23 24  1  0
  4 25  1  0
  4 26  1  0
  4 27  1  0
  5 28  1  0
  5 29  1  0
  5 30  1  0
  6 31  1  0
  6 32  1  0
  6 33  1  0
  7 34  1  0
  7 35  1  0
  9 36  1  0
 10 37  1  0
 11 38  1  0
 11 39  1  0
 12 40  1  0
 13 41  1  0
 16 42  1  0
 16 43  1  0
 16 44  1  0
 18 45  1  0
 19 46  1  0
 20 47  1  0
 21 48  1  0
 22 49  1  0
 23 50  1  0
 24 51  1  0
M  END
>  <ALOGPS_LOGP>  (1) 
5.85

>  <ALOGPS_LOGS>  (1) 
-6.62

>  <ALOGPS_SOLUBILITY>  (1) 
7.56e-05 g/l

>  <DATABASE_ID>  (1) 
DB01091

>  <DATABASE_NAME>  (1) 
drugbank

>  <DRUGBANK_ID>  (1) 
DB01091

>  <DRUG_GROUPS>  (1) 
approved

>  <EXACT_MASS>  (1) 
317.214349869

>  <FORMULA>  (1) 
C23H27N

>  <GENERIC_NAME>  (1) 
Butenafine

>  <INCHI_IDENTIFIER>  (1) 
InChI=1S/C23H27N/c1-23(2,3)21-14-12-18(13-15-21)16-24(4)17-20-10-7-9-19-8-5-6-11-22(19)20/h5-15H,16-17H2,1-4H3

>  <INCHI_KEY>  (1) 
ABJKWBDEJIDSJZ-UHFFFAOYSA-N

>  <JCHEM_ACCEPTOR_COUNT>  (1) 
1

>  <JCHEM_AVERAGE_POLARIZABILITY>  (1) 
38.40901664817692

>  <JCHEM_BIOAVAILABILITY>  (1) 
1

>  <JCHEM_DONOR_COUNT>  (1) 
0

>  <JCHEM_FORMAL_CHARGE>  (1) 
0

>  <JCHEM_GHOSE_FILTER>  (1) 
0

>  <JCHEM_IUPAC>  (1) 
[(4-tert-butylphenyl)methyl](methyl)(naphthalen-1-ylmethyl)amine

>  <JCHEM_LOGP>  (1) 
6.173648727666666

>  <JCHEM_MDDR_LIKE_RULE>  (1) 
0

>  <JCHEM_NUMBER_OF_RINGS>  (1) 
3

>  <JCHEM_PHYSIOLOGICAL_CHARGE>  (1) 
1

>  <JCHEM_PKA_STRONGEST_BASIC>  (1) 
9.233430737971924

>  <JCHEM_POLAR_SURFACE_AREA>  (1) 
3.24

>  <JCHEM_REFRACTIVITY>  (1) 
104.32940000000002

>  <JCHEM_ROTATABLE_BOND_COUNT>  (1) 
5

>  <JCHEM_RULE_OF_FIVE>  (1) 
0

>  <JCHEM_TRADITIONAL_IUPAC>  (1) 
butenafine

>  <JCHEM_VEBER_RULE>  (1) 
1

>  <MOLECULAR_WEIGHT>  (1) 
317.4672

>  <PRODUCTS>  (1) 
Athletes Foot; Dr. Scholl's Athlete's Foot Cream; Jock Itch; Lotrimin Ultra Antifungal; Lotrimin Ultra Athletes Foot; Lotrimin Ultra Jock Itch; Lotrimin Ultra Jock Itch Antifungal; Mentax; Tinactin Once-A-day Cream

>  <SALTS>  (1) 
Butenafine Hydrochloride

>  <SECONDARY_ACCESSION_NUMBERS>  (1) 
APRD00833

>  <SMILES>  (1) 
CN(CC1=CC=C(C=C1)C(C)(C)C)CC1=CC=CC2=CC=CC=C12

>  <SYNONYMS>  (1) 
Butenafina; Butenafine; Butenafinum

$$$$
