
     RDKit          2D

154157  0  0  0  0  0  0  0  0999 V2000
   -6.0001    1.2432    0.0000 C   0  0  0  0  0  0  0  0  0  0  0  0
   -6.0001    2.0540    0.0000 C   0  0  0  0  0  0  0  0  0  0  0  0
   -6.7027    0.8108    0.0000 C   0  0  0  0  0  0  0  0  0  0  0  0
   -6.7027    2.4325    0.0000 C   0  0  0  0  0  0  0  0  0  0  0  0
   -7.4055    1.2432    0.0000 C   0  0  0  0  0  0  0  0  0  0  0  0
   -7.4055    2.0540    0.0000 C   0  0  0  0  0  0  0  0  0  0  0  0
   -5.2974    0.8108    0.0000 C   0  0  0  0  0  0  0  0  0  0  0  0
   -4.5946    1.2432    0.0000 N   0  0  0  0  0  0  0  0  0  0  0  0
   -5.2974    2.4325    0.0000 C   0  0  0  0  0  0  0  0  0  0  0  0
   -4.5946    2.0540    0.0000 C   0  0  0  0  0  0  0  0  0  0  0  0
   -5.2974    0.0000    0.0000 C   0  0  0  0  0  0  0  0  0  0  0  0
   -3.8919    0.8108    0.0000 C   0  0  0  0  0  0  0  0  0  0  0  0
   -3.1892    1.2432    0.0000 C   0  0  0  0  0  0  0  0  0  0  0  0
   -2.4325    0.8108    0.0000 C   0  0  0  0  0  0  0  0  0  0  0  0
   -1.7837    1.2432    0.0000 O   0  0  0  0  0  0  0  0  0  0  0  0
   -1.0271    0.8108    0.0000 C   0  0  0  0  0  0  0  0  0  0  0  0
   -0.3243    1.2432    0.0000 C   0  0  0  0  0  0  0  0  0  0  0  0
    0.3783    0.8108    0.0000 C   0  0  0  0  0  0  0  0  0  0  0  0
    1.0810    1.2432    0.0000 C   0  0  0  0  0  0  0  0  0  0  0  0
    1.7837    0.8108    0.0000 O   0  0  0  0  0  0  0  0  0  0  0  0
    2.4866    1.2432    0.0000 C   0  0  0  0  0  0  0  0  0  0  0  0
    3.1892    0.8108    0.0000 C   0  0  0  0  0  0  0  0  0  0  0  0
    3.8918    1.2432    0.0000 C   0  0  0  0  0  0  0  0  0  0  0  0
    4.5945    0.8108    0.0000 N   0  0  0  0  0  0  0  0  0  0  0  0
   -4.5946   -0.4324    0.0000 C   0  0  0  0  0  0  0  0  0  0  0  0
   -4.5946   -1.1891    0.0000 C   0  0  0  0  0  0  0  0  0  0  0  0
   -3.8919    0.0000    0.0000 C   0  0  0  0  0  0  0  0  0  0  0  0
   -3.8919   -1.6216    0.0000 C   0  0  0  0  0  0  0  0  0  0  0  0
   -3.1892   -0.4324    0.0000 C   0  0  0  0  0  0  0  0  0  0  0  0
   -3.1892   -1.1891    0.0000 C   0  0  0  0  0  0  0  0  0  0  0  0
   -6.7027    0.0000    0.0000 O   0  0  0  0  0  0  0  0  0  0  0  0
   -8.1082    0.8108    0.0000 O   0  0  0  0  0  0  0  0  0  0  0  0
   -8.1082    2.4325    0.0000 O   0  0  0  0  0  0  0  0  0  0  0  0
   -6.0001   -0.4324    0.0000 C   0  0  0  0  0  0  0  0  0  0  0  0
   -8.1082    0.0000    0.0000 C   0  0  0  0  0  0  0  0  0  0  0  0
   -8.1082    3.2433    0.0000 C   0  0  0  0  0  0  0  0  0  0  0  0
   -3.8919    1.6216    0.0000 C   0  0  0  0  0  0  0  0  0  0  0  0
   -2.4325   -1.6216    0.0000 O   0  0  0  0  0  0  0  0  0  0  0  0
   -2.4325    0.0000    0.0000 O   0  0  0  0  0  0  0  0  0  0  0  0
   -3.8919   -2.4325    0.0000 O   0  0  0  0  0  0  0  0  0  0  0  0
   -3.1892   -2.8107    0.0000 C   0  0  0  0  0  0  0  0  0  0  0  0
   -1.7837   -1.1891    0.0000 C   0  0  0  0  0  0  0  0  0  0  0  0
   -1.7837   -0.4324    0.0000 C   0  0  0  0  0  0  0  0  0  0  0  0
   -1.0271    0.0000    0.0000 O   0  0  0  0  0  0  0  0  0  0  0  0
    1.0810    2.0540    0.0000 O   0  0  0  0  0  0  0  0  0  0  0  0
    6.0001    0.8108    0.0000 C   0  0  0  0  0  0  0  0  0  0  0  0
    6.0001    1.6216    0.0000 C   0  0  0  0  0  0  0  0  0  0  0  0
    5.2973    0.4324    0.0000 C   0  0  0  0  0  0  0  0  0  0  0  0
    5.2973    2.0540    0.0000 C   0  0  0  0  0  0  0  0  0  0  0  0
    4.5945    1.6216    0.0000 C   0  0  0  0  0  0  0  0  0  0  0  0
    4.0409    0.3826    0.0000 C   0  0  0  0  0  0  0  0  0  0  0  0
    6.7026    0.4324    0.0000 C   0  0  0  0  0  0  0  0  0  0  0  0
    7.4055    0.8108    0.0000 C   0  0  0  0  0  0  0  0  0  0  0  0
    6.7026    2.0540    0.0000 C   0  0  0  0  0  0  0  0  0  0  0  0
    7.4055    1.6216    0.0000 C   0  0  0  0  0  0  0  0  0  0  0  0
    6.7026   -0.4324    0.0000 O   0  0  0  0  0  0  0  0  0  0  0  0
    8.1082    0.4324    0.0000 O   0  0  0  0  0  0  0  0  0  0  0  0
    8.1082    2.0540    0.0000 O   0  0  0  0  0  0  0  0  0  0  0  0
    6.0001   -0.8108    0.0000 C   0  0  0  0  0  0  0  0  0  0  0  0
    8.1082   -0.4324    0.0000 C   0  0  0  0  0  0  0  0  0  0  0  0
    8.1082    2.8648    0.0000 C   0  0  0  0  0  0  0  0  0  0  0  0
    5.2973   -0.4324    0.0000 C   0  0  0  0  0  0  0  0  0  0  0  0
    4.5945   -0.8108    0.0000 C   0  0  0  0  0  0  0  0  0  0  0  0
    3.8918   -0.4324    0.0000 C   0  0  0  0  0  0  0  0  0  0  0  0
    4.5945   -1.6216    0.0000 C   0  0  0  0  0  0  0  0  0  0  0  0
    3.1892   -0.8108    0.0000 C   0  0  0  0  0  0  0  0  0  0  0  0
    3.8918   -2.0540    0.0000 C   0  0  0  0  0  0  0  0  0  0  0  0
    3.1892   -1.6216    0.0000 C   0  0  0  0  0  0  0  0  0  0  0  0
    2.4866   -2.0540    0.0000 O   0  0  0  0  0  0  0  0  0  0  0  0
    3.8918   -2.8107    0.0000 O   0  0  0  0  0  0  0  0  0  0  0  0
    2.4866   -0.4324    0.0000 O   0  0  0  0  0  0  0  0  0  0  0  0
    3.1892   -3.2433    0.0000 C   0  0  0  0  0  0  0  0  0  0  0  0
    1.7837   -1.6216    0.0000 C   0  0  0  0  0  0  0  0  0  0  0  0
    1.7837   -0.8108    0.0000 C   0  0  0  0  0  0  0  0  0  0  0  0
    3.9123    2.1224    0.0000 Cl  0  0  0  0  0  0  0  0  0  0  0  0
   -3.7839    2.3784    0.0000 Cl  0  0  0  0  0  0  0  0  0  0  0  0
    0.0000    0.0000    0.0000 H   0  0  0  0  0  0  0  0  0  0  0  0
    0.0000    0.0000    0.0000 H   0  0  0  0  0  0  0  0  0  0  0  0
    0.0000    0.0000    0.0000 H   0  0  0  0  0  0  0  0  0  0  0  0
    0.0000    0.0000    0.0000 H   0  0  0  0  0  0  0  0  0  0  0  0
    0.0000    0.0000    0.0000 H   0  0  0  0  0  0  0  0  0  0  0  0
    0.0000    0.0000    0.0000 H   0  0  0  0  0  0  0  0  0  0  0  0
    0.0000    0.0000    0.0000 H   0  0  0  0  0  0  0  0  0  0  0  0
    0.0000    0.0000    0.0000 H   0  0  0  0  0  0  0  0  0  0  0  0
    0.0000    0.0000    0.0000 H   0  0  0  0  0  0  0  0  0  0  0  0
    0.0000    0.0000    0.0000 H   0  0  0  0  0  0  0  0  0  0  0  0
    0.0000    0.0000    0.0000 H   0  0  0  0  0  0  0  0  0  0  0  0
    0.0000    0.0000    0.0000 H   0  0  0  0  0  0  0  0  0  0  0  0
    0.0000    0.0000    0.0000 H   0  0  0  0  0  0  0  0  0  0  0  0
    0.0000    0.0000    0.0000 H   0  0  0  0  0  0  0  0  0  0  0  0
    0.0000    0.0000    0.0000 H   0  0  0  0  0  0  0  0  0  0  0  0
    0.0000    0.0000    0.0000 H   0  0  0  0  0  0  0  0  0  0  0  0
    0.0000    0.0000    0.0000 H   0  0  0  0  0  0  0  0  0  0  0  0
    0.0000    0.0000    0.0000 H   0  0  0  0  0  0  0  0  0  0  0  0
    0.0000    0.0000    0.0000 H   0  0  0  0  0  0  0  0  0  0  0  0
    0.0000    0.0000    0.0000 H   0  0  0  0  0  0  0  0  0  0  0  0
    0.0000    0.0000    0.0000 H   0  0  0  0  0  0  0  0  0  0  0  0
    0.0000    0.0000    0.0000 H   0  0  0  0  0  0  0  0  0  0  0  0
    0.0000    0.0000    0.0000 H   0  0  0  0  0  0  0  0  0  0  0  0
    0.0000    0.0000    0.0000 H   0  0  0  0  0  0  0  0  0  0  0  0
    0.0000    0.0000    0.0000 H   0  0  0  0  0  0  0  0  0  0  0  0
    0.0000    0.0000    0.0000 H   0  0  0  0  0  0  0  0  0  0  0  0
    0.0000    0.0000    0.0000 H   0  0  0  0  0  0  0  0  0  0  0  0
    0.0000    0.0000    0.0000 H   0  0  0  0  0  0  0  0  0  0  0  0
    0.0000    0.0000    0.0000 H   0  0  0  0  0  0  0  0  0  0  0  0
    0.0000    0.0000    0.0000 H   0  0  0  0  0  0  0  0  0  0  0  0
    0.0000    0.0000    0.0000 H   0  0  0  0  0  0  0  0  0  0  0  0
    0.0000    0.0000    0.0000 H   0  0  0  0  0  0  0  0  0  0  0  0
    0.0000    0.0000    0.0000 H   0  0  0  0  0  0  0  0  0  0  0  0
    0.0000    0.0000    0.0000 H   0  0  0  0  0  0  0  0  0  0  0  0
    0.0000    0.0000    0.0000 H   0  0  0  0  0  0  0  0  0  0  0  0
    0.0000    0.0000    0.0000 H   0  0  0  0  0  0  0  0  0  0  0  0
    0.0000    0.0000    0.0000 H   0  0  0  0  0  0  0  0  0  0  0  0
    0.0000    0.0000    0.0000 H   0  0  0  0  0  0  0  0  0  0  0  0
    0.0000    0.0000    0.0000 H   0  0  0  0  0  0  0  0  0  0  0  0
    0.0000    0.0000    0.0000 H   0  0  0  0  0  0  0  0  0  0  0  0
    0.0000    0.0000    0.0000 H   0  0  0  0  0  0  0  0  0  0  0  0
    0.0000    0.0000    0.0000 H   0  0  0  0  0  0  0  0  0  0  0  0
    0.0000    0.0000    0.0000 H   0  0  0  0  0  0  0  0  0  0  0  0
    0.0000    0.0000    0.0000 H   0  0  0  0  0  0  0  0  0  0  0  0
    0.0000    0.0000    0.0000 H   0  0  0  0  0  0  0  0  0  0  0  0
    0.0000    0.0000    0.0000 H   0  0  0  0  0  0  0  0  0  0  0  0
    0.0000    0.0000    0.0000 H   0  0  0  0  0  0  0  0  0  0  0  0
    0.0000    0.0000    0.0000 H   0  0  0  0  0  0  0  0  0  0  0  0
    0.0000    0.0000    0.0000 H   0  0  0  0  0  0  0  0  0  0  0  0
    0.0000    0.0000    0.0000 H   0  0  0  0  0  0  0  0  0  0  0  0
    0.0000    0.0000    0.0000 H   0  0  0  0  0  0  0  0  0  0  0  0
    0.0000    0.0000    0.0000 H   0  0  0  0  0  0  0  0  0  0  0  0
    0.0000    0.0000    0.0000 H   0  0  0  0  0  0  0  0  0  0  0  0
    0.0000    0.0000    0.0000 H   0  0  0  0  0  0  0  0  0  0  0  0
    0.0000    0.0000    0.0000 H   0  0  0  0  0  0  0  0  0  0  0  0
    0.0000    0.0000    0.0000 H   0  0  0  0  0  0  0  0  0  0  0  0
    0.0000    0.0000    0.0000 H   0  0  0  0  0  0  0  0  0  0  0  0
    0.0000    0.0000    0.0000 H   0  0  0  0  0  0  0  0  0  0  0  0
    0.0000    0.0000    0.0000 H   0  0  0  0  0  0  0  0  0  0  0  0
    0.0000    0.0000    0.0000 H   0  0  0  0  0  0  0  0  0  0  0  0
    0.0000    0.0000    0.0000 H   0  0  0  0  0  0  0  0  0  0  0  0
    0.0000    0.0000    0.0000 H   0  0  0  0  0  0  0  0  0  0  0  0
    0.0000    0.0000    0.0000 H   0  0  0  0  0  0  0  0  0  0  0  0
    0.0000    0.0000    0.0000 H   0  0  0  0  0  0  0  0  0  0  0  0
    0.0000    0.0000    0.0000 H   0  0  0  0  0  0  0  0  0  0  0  0
    0.0000    0.0000    0.0000 H   0  0  0  0  0  0  0  0  0  0  0  0
    0.0000    0.0000    0.0000 H   0  0  0  0  0  0  0  0  0  0  0  0
    0.0000    0.0000    0.0000 H   0  0  0  0  0  0  0  0  0  0  0  0
    0.0000    0.0000    0.0000 H   0  0  0  0  0  0  0  0  0  0  0  0
    0.0000    0.0000    0.0000 H   0  0  0  0  0  0  0  0  0  0  0  0
    0.0000    0.0000    0.0000 H   0  0  0  0  0  0  0  0  0  0  0  0
    0.0000    0.0000    0.0000 H   0  0  0  0  0  0  0  0  0  0  0  0
    0.0000    0.0000    0.0000 H   0  0  0  0  0  0  0  0  0  0  0  0
    0.0000    0.0000    0.0000 H   0  0  0  0  0  0  0  0  0  0  0  0
    0.0000    0.0000    0.0000 H   0  0  0  0  0  0  0  0  0  0  0  0
    0.0000    0.0000    0.0000 H   0  0  0  0  0  0  0  0  0  0  0  0
    0.0000    0.0000    0.0000 H   0  0  0  0  0  0  0  0  0  0  0  0
    0.0000    0.0000    0.0000 H   0  0  0  0  0  0  0  0  0  0  0  0
  3  1  2  0
  7  1  1  0
  2  1  1  0
  4  2  2  0
  9  2  1  0
  5  3  1  0
 31  3  1  0
  6  4  1  0
  6  5  2  0
 32  5  1  0
 33  6  1  0
  8  7  1  0
  7 11  1  6
 10  8  1  0
  8 12  1  1
  8 37  1  0
 10  9  1  0
 25 11  1  0
 13 12  1  0
 14 13  1  0
 15 14  1  0
 16 15  1  0
 17 16  1  0
 44 16  2  0
 18 17  1  0
 19 18  1  0
 20 19  1  0
 45 19  2  0
 21 20  1  0
 22 21  1  0
 23 22  1  0
 24 23  1  1
 48 24  1  0
 50 24  1  0
 24 51  1  0
 26 25  2  0
 27 25  1  0
 28 26  1  0
 29 27  2  0
 30 28  2  0
 40 28  1  0
 30 29  1  0
 39 29  1  0
 38 30  1  0
 34 31  1  0
 35 32  1  0
 36 33  1  0
 42 38  1  0
 43 39  1  0
 41 40  1  0
 48 46  1  0
 52 46  2  0
 47 46  1  0
 49 47  1  0
 54 47  2  0
 48 62  1  6
 50 49  1  0
 53 52  1  0
 56 52  1  0
 55 53  2  0
 57 53  1  0
 55 54  1  0
 58 55  1  0
 59 56  1  0
 60 57  1  0
 61 58  1  0
 63 62  1  0
 64 63  2  0
 65 63  1  0
 66 64  1  0
 67 65  2  0
 68 66  2  0
 71 66  1  0
 68 67  1  0
 70 67  1  0
 69 68  1  0
 73 69  1  0
 72 70  1  0
 74 71  1  0
  4 77  1  0
  7 78  1  0
  9 79  1  0
  9 80  1  0
 10 81  1  0
 10 82  1  0
 11 83  1  0
 11 84  1  0
 12 85  1  0
 12 86  1  0
 13 87  1  0
 13 88  1  0
 14 89  1  0
 14 90  1  0
 17 91  1  0
 17 92  1  0
 18 93  1  0
 18 94  1  0
 21 95  1  0
 21 96  1  0
 22 97  1  0
 22 98  1  0
 23 99  1  0
 23100  1  0
 26101  1  0
 27102  1  0
 34103  1  0
 34104  1  0
 34105  1  0
 35106  1  0
 35107  1  0
 35108  1  0
 36109  1  0
 36110  1  0
 36111  1  0
 37112  1  0
 37113  1  0
 37114  1  0
 41115  1  0
 41116  1  0
 41117  1  0
 42118  1  0
 42119  1  0
 42120  1  0
 43121  1  0
 43122  1  0
 43123  1  0
 48124  1  0
 49125  1  0
 49126  1  0
 50127  1  0
 50128  1  0
 51129  1  0
 51130  1  0
 51131  1  0
 54132  1  0
 59133  1  0
 59134  1  0
 59135  1  0
 60136  1  0
 60137  1  0
 60138  1  0
 61139  1  0
 61140  1  0
 61141  1  0
 62142  1  0
 62143  1  0
 64144  1  0
 65145  1  0
 72146  1  0
 72147  1  0
 72148  1  0
 73149  1  0
 73150  1  0
 73151  1  0
 74152  1  0
 74153  1  0
 74154  1  0
M  CHG  4   8   1  24   1  75  -1  76  -1
M  END
>  <ALOGPS_LOGP>  (1) 
3.82

>  <ALOGPS_LOGS>  (1) 
-7.11

>  <ALOGPS_SOLUBILITY>  (1) 
8.54e-05 g/l

>  <DATABASE_ID>  (1) 
DB01135

>  <DATABASE_NAME>  (1) 
drugbank

>  <DRUGBANK_ID>  (1) 
DB01135

>  <DRUG_GROUPS>  (1) 
approved

>  <EXACT_MASS>  (1) 
1104.4728398

>  <FORMULA>  (1) 
C56H78Cl2N2O16

>  <GENERIC_NAME>  (1) 
Doxacurium chloride

>  <INCHI_IDENTIFIER>  (1) 
InChI=1S/C56H78N2O16.2ClH/c1-57(23-19-37-33-45(65-7)53(69-11)55(71-13)49(37)39(57)27-35-29-41(61-3)51(67-9)42(30-35)62-4)21-15-25-73-47(59)17-18-48(60)74-26-16-22-58(2)24-20-38-34-46(66-8)54(70-12)56(72-14)50(38)40(58)28-36-31-43(63-5)52(68-10)44(32-36)64-6;;/h29-34,39-40H,15-28H2,1-14H3;2*1H/q+2;;/p-2/t39-,40+,57-,58+;;

>  <INCHI_KEY>  (1) 
APADFLLAXHIMFU-LGIHQUBZSA-L

>  <JCHEM_ACCEPTOR_COUNT>  (1) 
14

>  <JCHEM_ATOM_COUNT>  (1) 
154

>  <JCHEM_AVERAGE_POLARIZABILITY>  (1) 
113.30612372574458

>  <JCHEM_BIOAVAILABILITY>  (1) 
0

>  <JCHEM_DONOR_COUNT>  (1) 
0

>  <JCHEM_FORMAL_CHARGE>  (1) 
0

>  <JCHEM_GHOSE_FILTER>  (1) 
0

>  <JCHEM_IUPAC>  (1) 
(1R,2S)-6,7,8-trimethoxy-2-methyl-2-{3-[(4-oxo-4-{3-[(1S,2R)-6,7,8-trimethoxy-2-methyl-1-[(3,4,5-trimethoxyphenyl)methyl]-1,2,3,4-tetrahydroisoquinolin-2-ium-2-yl]propoxy}butanoyl)oxy]propyl}-1-[(3,4,5-trimethoxyphenyl)methyl]-1,2,3,4-tetrahydroisoquinolin-2-ium dichloride

>  <JCHEM_LOGP>  (1) 
-2.491688721610156

>  <JCHEM_MDDR_LIKE_RULE>  (1) 
1

>  <JCHEM_NUMBER_OF_RINGS>  (1) 
6

>  <JCHEM_PHYSIOLOGICAL_CHARGE>  (1) 
2

>  <JCHEM_PKA>  (1) 
19.00722596613584

>  <JCHEM_PKA_STRONGEST_ACIDIC>  (1) 
18.405165974807876

>  <JCHEM_PKA_STRONGEST_BASIC>  (1) 
-4.127683187574672

>  <JCHEM_POLAR_SURFACE_AREA>  (1) 
163.35999999999999

>  <JCHEM_REFRACTIVITY>  (1) 
302.1497999999999

>  <JCHEM_ROTATABLE_BOND_COUNT>  (1) 
29

>  <JCHEM_RULE_OF_FIVE>  (1) 
0

>  <JCHEM_TRADITIONAL_IUPAC>  (1) 
meso-doxacurium dichloride

>  <JCHEM_VEBER_RULE>  (1) 
0

>  <MOLECULAR_WEIGHT>  (1) 
1106.14

>  <PRODUCTS>  (1) 
Nuromax

>  <SECONDARY_ACCESSION_NUMBERS>  (1) 
APRD00934; DB01334

>  <SMILES>  (1) 
[Cl-].[Cl-].COC1=CC(C[C@@H]2C3=C(OC)C(OC)=C(OC)C=C3CC[N@@+]2(C)CCCOC(=O)CCC(=O)OCCC[N@@+]2(C)CCC3=C([C@@H]2CC2=CC(OC)=C(OC)C(OC)=C2)C(OC)=C(OC)C(OC)=C3)=CC(OC)=C1OC

$$$$
