1223
     RDKit          2D

 54 55  0  0  0  0  0  0  0  0999 V2000
    6.5489    9.2706    0.0000 O   0  0  0  0  0  0  0  0  0  0  0  0
    6.5489    3.8116    0.0000 O   0  0  0  0  0  0  0  0  0  0  0  0
    5.1199    6.7956    0.0000 O   0  0  0  0  0  0  0  0  0  0  0  0
    5.1199    1.3365    0.0000 O   0  0  0  0  0  0  0  0  0  0  0  0
    6.5489    6.7956    0.0000 N   0  0  0  0  0  0  0  0  0  0  0  0
    6.5489    1.3365    0.0000 N   0  0  0  0  0  0  0  0  0  0  0  0
    5.8344    8.0331    0.0000 N   0  0  0  0  0  0  0  0  0  0  0  0
    5.8344    2.5741    0.0000 N   0  0  0  0  0  0  0  0  0  0  0  0
    8.0440    8.2846    0.0000 N   0  0  0  0  0  0  0  0  0  0  0  0
    8.0440    2.8254    0.0000 N   0  0  0  0  0  0  0  0  0  0  0  0
    8.0440    6.9567    0.0000 N   0  0  0  0  0  0  0  0  0  0  0  0
    8.0440    1.4977    0.0000 N   0  0  0  0  0  0  0  0  0  0  0  0
    2.5864    4.8416    0.0000 N   0  0  0  0  0  0  0  0  0  0  0  0
    0.4430    4.4291    0.0000 N   0  0  0  0  0  0  0  0  0  0  0  0
    7.2634    7.2081    0.0000 C   0  0  0  0  0  0  0  0  0  0  0  0
    7.2634    1.7490    0.0000 C   0  0  0  0  0  0  0  0  0  0  0  0
    7.2634    8.0331    0.0000 C   0  0  0  0  0  0  0  0  0  0  0  0
    7.2634    2.5741    0.0000 C   0  0  0  0  0  0  0  0  0  0  0  0
    6.5489    8.4456    0.0000 C   0  0  0  0  0  0  0  0  0  0  0  0
    6.5489    2.9866    0.0000 C   0  0  0  0  0  0  0  0  0  0  0  0
    5.8344    7.2081    0.0000 C   0  0  0  0  0  0  0  0  0  0  0  0
    5.8344    1.7490    0.0000 C   0  0  0  0  0  0  0  0  0  0  0  0
    6.5489    5.9706    0.0000 C   0  0  0  0  0  0  0  0  0  0  0  0
    6.5489    0.5115    0.0000 C   0  0  0  0  0  0  0  0  0  0  0  0
    5.1199    8.4456    0.0000 C   0  0  0  0  0  0  0  0  0  0  0  0
    5.1199    2.9866    0.0000 C   0  0  0  0  0  0  0  0  0  0  0  0
    8.5255    7.6206    0.0000 C   0  0  0  0  0  0  0  0  0  0  0  0
    8.5255    2.1615    0.0000 C   0  0  0  0  0  0  0  0  0  0  0  0
    1.8720    4.4291    0.0000 C   0  0  0  0  0  0  0  0  0  0  0  0
    1.1575    4.8416    0.0000 C   0  0  0  0  0  0  0  0  0  0  0  0
    0.0000    0.0000    0.0000 H   0  0  0  0  0  0  0  0  0  0  0  0
    0.0000    0.0000    0.0000 H   0  0  0  0  0  0  0  0  0  0  0  0
    0.0000    0.0000    0.0000 H   0  0  0  0  0  0  0  0  0  0  0  0
    0.0000    0.0000    0.0000 H   0  0  0  0  0  0  0  0  0  0  0  0
    0.0000    0.0000    0.0000 H   0  0  0  0  0  0  0  0  0  0  0  0
    0.0000    0.0000    0.0000 H   0  0  0  0  0  0  0  0  0  0  0  0
    0.0000    0.0000    0.0000 H   0  0  0  0  0  0  0  0  0  0  0  0
    0.0000    0.0000    0.0000 H   0  0  0  0  0  0  0  0  0  0  0  0
    0.0000    0.0000    0.0000 H   0  0  0  0  0  0  0  0  0  0  0  0
    0.0000    0.0000    0.0000 H   0  0  0  0  0  0  0  0  0  0  0  0
    0.0000    0.0000    0.0000 H   0  0  0  0  0  0  0  0  0  0  0  0
    0.0000    0.0000    0.0000 H   0  0  0  0  0  0  0  0  0  0  0  0
    0.0000    0.0000    0.0000 H   0  0  0  0  0  0  0  0  0  0  0  0
    0.0000    0.0000    0.0000 H   0  0  0  0  0  0  0  0  0  0  0  0
    0.0000    0.0000    0.0000 H   0  0  0  0  0  0  0  0  0  0  0  0
    0.0000    0.0000    0.0000 H   0  0  0  0  0  0  0  0  0  0  0  0
    0.0000    0.0000    0.0000 H   0  0  0  0  0  0  0  0  0  0  0  0
    0.0000    0.0000    0.0000 H   0  0  0  0  0  0  0  0  0  0  0  0
    0.0000    0.0000    0.0000 H   0  0  0  0  0  0  0  0  0  0  0  0
    0.0000    0.0000    0.0000 H   0  0  0  0  0  0  0  0  0  0  0  0
    0.0000    0.0000    0.0000 H   0  0  0  0  0  0  0  0  0  0  0  0
    0.0000    0.0000    0.0000 H   0  0  0  0  0  0  0  0  0  0  0  0
    0.0000    0.0000    0.0000 H   0  0  0  0  0  0  0  0  0  0  0  0
    0.0000    0.0000    0.0000 H   0  0  0  0  0  0  0  0  0  0  0  0
  1 19  2  0
  2 20  2  0
  3 21  2  0
  4 22  2  0
  5 15  1  0
  5 21  1  0
  5 23  1  0
  6 16  1  0
  6 22  1  0
  6 24  1  0
  7 19  1  0
  7 21  1  0
  7 25  1  0
  8 20  1  0
  8 22  1  0
  8 26  1  0
  9 17  1  0
  9 27  1  0
 10 18  1  0
 10 28  1  0
 11 15  1  0
 11 27  2  0
 12 16  1  0
 12 28  2  0
 13 29  1  0
 14 30  1  0
 15 17  2  0
 16 18  2  0
 17 19  1  0
 18 20  1  0
 29 30  1  0
  9 31  1  0
 10 32  1  0
 13 33  1  0
 13 34  1  0
 14 35  1  0
 14 36  1  0
 23 37  1  0
 23 38  1  0
 23 39  1  0
 24 40  1  0
 24 41  1  0
 24 42  1  0
 25 43  1  0
 25 44  1  0
 25 45  1  0
 26 46  1  0
 26 47  1  0
 26 48  1  0
 27 49  1  0
 28 50  1  0
 29 51  1  0
 29 52  1  0
 30 53  1  0
 30 54  1  0
M  END
>  <DATABASE_ID>  (1) 
DB01223

>  <DATABASE_NAME>  (1) 
drugbank

>  <DRUGBANK_ID>  (1) 
DB01223

>  <DRUG_GROUPS>  (1) 
approved

>  <EXACT_MASS>  (1) 
420.198199306

>  <FORMULA>  (1) 
C16H24N10O4

>  <GENERIC_NAME>  (1) 
Aminophylline

>  <INCHI_IDENTIFIER>  (1) 
InChI=1S/2C7H8N4O2.C2H8N2/c2*1-10-5-4(8-3-9-5)6(12)11(2)7(10)13;3-1-2-4/h2*3H,1-2H3,(H,8,9);1-4H2

>  <INCHI_KEY>  (1) 
FQPFAHBPWDRTLU-UHFFFAOYSA-N

>  <INTERNATIONAL_BRANDS>  (1) 
Minomal; Somophyllin; Truphylline

>  <JCHEM_ACCEPTOR_COUNT>  (1) 
3

>  <JCHEM_AVERAGE_POLARIZABILITY>  (1) 
16.85540087856322

>  <JCHEM_BIOAVAILABILITY>  (1) 
1

>  <JCHEM_DONOR_COUNT>  (1) 
1

>  <JCHEM_FORMAL_CHARGE>  (1) 
0

>  <JCHEM_GHOSE_FILTER>  (1) 
0

>  <JCHEM_IUPAC>  (1) 
bis(1,3-dimethyl-2,3,6,7-tetrahydro-1H-purine-2,6-dione); ethane-1,2-diamine

>  <JCHEM_LOGP>  (1) 
-0.7693216573333334

>  <JCHEM_MDDR_LIKE_RULE>  (1) 
0

>  <JCHEM_NUMBER_OF_RINGS>  (1) 
4

>  <JCHEM_PHYSIOLOGICAL_CHARGE>  (1) 
0

>  <JCHEM_PKA_STRONGEST_ACIDIC>  (1) 
7.815127426971927

>  <JCHEM_PKA_STRONGEST_BASIC>  (1) 
-0.77711753278622

>  <JCHEM_POLAR_SURFACE_AREA>  (1) 
69.30000000000001

>  <JCHEM_REFRACTIVITY>  (1) 
44.9345

>  <JCHEM_ROTATABLE_BOND_COUNT>  (1) 
1

>  <JCHEM_RULE_OF_FIVE>  (1) 
1

>  <JCHEM_TRADITIONAL_IUPAC>  (1) 
ethylenediamine; bis(theophylline)

>  <JCHEM_VEBER_RULE>  (1) 
0

>  <MOLECULAR_WEIGHT>  (1) 
420.4264

>  <PRODUCTS>  (1) 
Aminophylline; Aminophylline Inj 25mg/ml; Aminophylline Inj 50mg/ml; Aminophylline Injection 50mg/ml; Aminophylline Injection USP; Aminophylline Tab 0.1gm; Aminophylline Tab 100mg; Jaa Aminophylline Tab 100mg; Phyllocontin; Phyllocontin-350

>  <SALTS>  (1) 
Aminophylline dihydrate

>  <SECONDARY_ACCESSION_NUMBERS>  (1) 
APRD00329

>  <SMILES>  (1) 
NCCN.CN1C2=C(NC=N2)C(=O)N(C)C1=O.CN1C2=C(NC=N2)C(=O)N(C)C1=O

>  <SYNONYMS>  (1) 
Aminophyllin

$$$$
