1295
     RDKit          2D

 52 53  0  0  1  0  0  0  0  0999 V2000
    7.3659   -2.0625    0.0000 O   0  0  0  0  0  0  0  0  0  0  0  0
    7.3659   -0.4125    0.0000 O   0  0  0  0  0  0  0  0  0  0  0  0
    3.7935    4.1251    0.0000 O   0  0  0  0  0  0  0  0  0  0  0  0
    2.3645    3.3001    0.0000 O   0  0  0  0  0  0  0  0  0  0  0  0
    5.9370    0.4125    0.0000 N   0  0  0  0  0  0  0  0  0  0  0  0
    5.9370   -0.4125    0.0000 C   0  0  0  0  0  0  0  0  0  0  0  0
    6.6515   -0.8250    0.0000 C   0  0  0  0  0  0  0  0  0  0  0  0
    5.2224    0.8250    0.0000 C   0  0  0  0  0  0  0  0  0  0  0  0
    5.2224    1.6500    0.0000 C   0  0  0  0  0  0  0  0  0  0  0  0
    4.5080    2.0625    0.0000 C   0  0  0  0  0  0  0  0  0  0  0  0
    6.6515   -1.6500    0.0000 C   0  0  0  0  0  0  0  0  0  0  0  0
    4.5080    2.8876    0.0000 C   0  0  0  0  0  0  0  0  0  0  0  0
    3.7935    1.6500    0.0000 C   0  0  0  0  0  0  0  0  0  0  0  0
    3.7935    3.3001    0.0000 C   0  0  0  0  0  0  0  0  0  0  0  0
    3.0791    2.0625    0.0000 C   0  0  0  0  0  0  0  0  0  0  0  0
    3.0791    2.8876    0.0000 C   0  0  0  0  0  0  0  0  0  0  0  0
    7.3659   -2.8876    0.0000 C   0  0  0  0  0  0  0  0  0  0  0  0
    8.0804   -3.3001    0.0000 C   0  0  0  0  0  0  0  0  0  0  0  0
    8.0804   -4.1251    0.0000 C   0  0  0  0  0  0  0  0  0  0  0  0
    6.6515   -3.3001    0.0000 C   0  0  0  0  0  0  0  0  0  0  0  0
    7.3659   -4.5376    0.0000 C   0  0  0  0  0  0  0  0  0  0  0  0
    6.6515   -4.1251    0.0000 C   0  0  0  0  0  0  0  0  0  0  0  0
    8.7949   -4.5376    0.0000 C   0  0  0  0  0  0  0  0  0  0  0  0
    4.5080    4.5376    0.0000 C   0  0  0  0  0  0  0  0  0  0  0  0
    1.6500    2.8876    0.0000 C   0  0  0  0  0  0  0  0  0  0  0  0
    0.0000    0.0000    0.0000 H   0  0  0  0  0  0  0  0  0  0  0  0
    0.0000    0.0000    0.0000 H   0  0  0  0  0  0  0  0  0  0  0  0
    0.0000    0.0000    0.0000 H   0  0  0  0  0  0  0  0  0  0  0  0
    0.0000    0.0000    0.0000 H   0  0  0  0  0  0  0  0  0  0  0  0
    0.0000    0.0000    0.0000 H   0  0  0  0  0  0  0  0  0  0  0  0
    0.0000    0.0000    0.0000 H   0  0  0  0  0  0  0  0  0  0  0  0
    0.0000    0.0000    0.0000 H   0  0  0  0  0  0  0  0  0  0  0  0
    0.0000    0.0000    0.0000 H   0  0  0  0  0  0  0  0  0  0  0  0
    0.0000    0.0000    0.0000 H   0  0  0  0  0  0  0  0  0  0  0  0
    0.0000    0.0000    0.0000 H   0  0  0  0  0  0  0  0  0  0  0  0
    0.0000    0.0000    0.0000 H   0  0  0  0  0  0  0  0  0  0  0  0
    0.0000    0.0000    0.0000 H   0  0  0  0  0  0  0  0  0  0  0  0
    0.0000    0.0000    0.0000 H   0  0  0  0  0  0  0  0  0  0  0  0
    0.0000    0.0000    0.0000 H   0  0  0  0  0  0  0  0  0  0  0  0
    0.0000    0.0000    0.0000 H   0  0  0  0  0  0  0  0  0  0  0  0
    0.0000    0.0000    0.0000 H   0  0  0  0  0  0  0  0  0  0  0  0
    0.0000    0.0000    0.0000 H   0  0  0  0  0  0  0  0  0  0  0  0
    0.0000    0.0000    0.0000 H   0  0  0  0  0  0  0  0  0  0  0  0
    0.0000    0.0000    0.0000 H   0  0  0  0  0  0  0  0  0  0  0  0
    0.0000    0.0000    0.0000 H   0  0  0  0  0  0  0  0  0  0  0  0
    0.0000    0.0000    0.0000 H   0  0  0  0  0  0  0  0  0  0  0  0
    0.0000    0.0000    0.0000 H   0  0  0  0  0  0  0  0  0  0  0  0
    0.0000    0.0000    0.0000 H   0  0  0  0  0  0  0  0  0  0  0  0
    0.0000    0.0000    0.0000 H   0  0  0  0  0  0  0  0  0  0  0  0
    0.0000    0.0000    0.0000 H   0  0  0  0  0  0  0  0  0  0  0  0
    0.0000    0.0000    0.0000 H   0  0  0  0  0  0  0  0  0  0  0  0
    0.0000    0.0000    0.0000 H   0  0  0  0  0  0  0  0  0  0  0  0
  1 11  1  0
  1 17  1  0
  2  7  1  0
  3 14  1  0
  3 24  1  0
  4 16  1  0
  4 25  1  0
  5  6  1  0
  5  8  1  0
  6  7  1  0
  7 11  1  0
  8  9  1  0
  9 10  1  0
 10 12  2  0
 10 13  1  0
 12 14  1  0
 13 15  2  0
 14 16  2  0
 15 16  1  0
 17 18  2  0
 17 20  1  0
 18 19  1  0
 19 21  2  0
 19 23  1  0
 20 22  2  0
 21 22  1  0
  2 26  1  0
  5 27  1  0
  6 28  1  0
  6 29  1  0
  7 30  1  0
  8 31  1  0
  8 32  1  0
  9 33  1  0
  9 34  1  0
 11 35  1  0
 11 36  1  0
 12 37  1  0
 13 38  1  0
 15 39  1  0
 18 40  1  0
 20 41  1  0
 21 42  1  0
 22 43  1  0
 23 44  1  0
 23 45  1  0
 23 46  1  0
 24 47  1  0
 24 48  1  0
 24 49  1  0
 25 50  1  0
 25 51  1  0
 25 52  1  0
M  END
>  <ALOGPS_LOGP>  (1) 
2.83

>  <ALOGPS_LOGS>  (1) 
-4.40

>  <ALOGPS_SOLUBILITY>  (1) 
1.37e-02 g/l

>  <DATABASE_ID>  (1) 
DB01295

>  <DATABASE_NAME>  (1) 
drugbank

>  <DRUGBANK_ID>  (1) 
DB01295

>  <DRUG_GROUPS>  (1) 
approved

>  <EXACT_MASS>  (1) 
345.194008357

>  <FORMULA>  (1) 
C20H27NO4

>  <GENERIC_NAME>  (1) 
Bevantolol

>  <INCHI_IDENTIFIER>  (1) 
InChI=1S/C20H27NO4/c1-15-5-4-6-18(11-15)25-14-17(22)13-21-10-9-16-7-8-19(23-2)20(12-16)24-3/h4-8,11-12,17,21-22H,9-10,13-14H2,1-3H3

>  <INCHI_KEY>  (1) 
HXLAFSUPPDYFEO-UHFFFAOYSA-N

>  <JCHEM_ACCEPTOR_COUNT>  (1) 
5

>  <JCHEM_AVERAGE_POLARIZABILITY>  (1) 
39.74763139047663

>  <JCHEM_BIOAVAILABILITY>  (1) 
1

>  <JCHEM_DONOR_COUNT>  (1) 
2

>  <JCHEM_FORMAL_CHARGE>  (1) 
0

>  <JCHEM_GHOSE_FILTER>  (1) 
1

>  <JCHEM_IUPAC>  (1) 
1-{[2-(3,4-dimethoxyphenyl)ethyl]amino}-3-(3-methylphenoxy)propan-2-ol

>  <JCHEM_LOGP>  (1) 
3.032049373666668

>  <JCHEM_MDDR_LIKE_RULE>  (1) 
0

>  <JCHEM_NUMBER_OF_RINGS>  (1) 
2

>  <JCHEM_PHYSIOLOGICAL_CHARGE>  (1) 
1

>  <JCHEM_PKA_STRONGEST_ACIDIC>  (1) 
14.088176278612249

>  <JCHEM_PKA_STRONGEST_BASIC>  (1) 
9.313843379547583

>  <JCHEM_POLAR_SURFACE_AREA>  (1) 
59.95

>  <JCHEM_REFRACTIVITY>  (1) 
98.54330000000002

>  <JCHEM_ROTATABLE_BOND_COUNT>  (1) 
10

>  <JCHEM_RULE_OF_FIVE>  (1) 
1

>  <JCHEM_TRADITIONAL_IUPAC>  (1) 
1-{[2-(3,4-dimethoxyphenyl)ethyl]amino}-3-(3-methylphenoxy)propan-2-ol

>  <JCHEM_VEBER_RULE>  (1) 
0

>  <MOLECULAR_WEIGHT>  (1) 
345.4327

>  <SMILES>  (1) 
COC1=C(OC)C=C(CCNCC(O)COC2=CC=CC(C)=C2)C=C1

>  <SYNONYMS>  (1) 
1-(3,4-Dimethoxyphenethylamino)-3-(m-tolyloxy)-2-propanol; Bevantololum

$$$$
