1340
     RDKit          2D

 61 63  0  0  1  0  0  0  0  0999 V2000
    5.8928    2.0873    0.0000 O   0  0  0  0  0  0  0  0  0  0  0  0
    5.4004    0.2166    0.0000 O   0  0  0  0  0  0  0  0  0  0  0  0
    6.0055    1.5111    0.0000 O   0  0  0  0  0  0  0  0  0  0  0  0
    7.5264    5.3499    0.0000 O   0  0  0  0  0  0  0  0  0  0  0  0
    7.8443    3.9568    0.0000 O   0  0  0  0  0  0  0  0  0  0  0  0
    3.7611    2.6017    0.0000 N   0  0  0  0  0  0  0  0  0  0  0  0
    4.5044    2.2437    0.0000 N   0  0  0  0  0  0  0  0  0  0  0  0
    6.2356    3.5896    0.0000 N   0  0  0  0  0  0  0  0  0  0  0  0
    4.5818    1.3878    0.0000 C   0  0  0  0  0  0  0  0  0  0  0  0
    5.4313    3.4060    0.0000 C   0  0  0  0  0  0  0  0  0  0  0  0
    3.0436    2.1286    0.0000 C   0  0  0  0  0  0  0  0  0  0  0  0
    3.5775    3.4060    0.0000 C   0  0  0  0  0  0  0  0  0  0  0  0
    3.8756    0.8984    0.0000 C   0  0  0  0  0  0  0  0  0  0  0  0
    4.9169    4.0511    0.0000 C   0  0  0  0  0  0  0  0  0  0  0  0
    3.1013    1.2712    0.0000 C   0  0  0  0  0  0  0  0  0  0  0  0
    4.0919    4.0511    0.0000 C   0  0  0  0  0  0  0  0  0  0  0  0
    5.2478    2.6017    0.0000 C   0  0  0  0  0  0  0  0  0  0  0  0
    6.4788    4.3779    0.0000 C   0  0  0  0  0  0  0  0  0  0  0  0
    5.3293    1.0385    0.0000 C   0  0  0  0  0  0  0  0  0  0  0  0
    5.9177    4.9828    0.0000 C   0  0  0  0  0  0  0  0  0  0  0  0
    6.1609    5.7711    0.0000 C   0  0  0  0  0  0  0  0  0  0  0  0
    7.2832    4.5616    0.0000 C   0  0  0  0  0  0  0  0  0  0  0  0
    5.5997    6.3759    0.0000 C   0  0  0  0  0  0  0  0  0  0  0  0
    4.7954    6.1923    0.0000 C   0  0  0  0  0  0  0  0  0  0  0  0
    5.8428    7.1643    0.0000 C   0  0  0  0  0  0  0  0  0  0  0  0
    8.3307    5.5335    0.0000 C   0  0  0  0  0  0  0  0  0  0  0  0
    4.2342    6.7971    0.0000 C   0  0  0  0  0  0  0  0  0  0  0  0
    5.2817    7.7690    0.0000 C   0  0  0  0  0  0  0  0  0  0  0  0
    8.5738    6.3218    0.0000 C   0  0  0  0  0  0  0  0  0  0  0  0
    4.4774    7.5854    0.0000 C   0  0  0  0  0  0  0  0  0  0  0  0
    0.0000    0.0000    0.0000 H   0  0  0  0  0  0  0  0  0  0  0  0
    0.0000    0.0000    0.0000 H   0  0  0  0  0  0  0  0  0  0  0  0
    0.0000    0.0000    0.0000 H   0  0  0  0  0  0  0  0  0  0  0  0
    0.0000    0.0000    0.0000 H   0  0  0  0  0  0  0  0  0  0  0  0
    0.0000    0.0000    0.0000 H   0  0  0  0  0  0  0  0  0  0  0  0
    0.0000    0.0000    0.0000 H   0  0  0  0  0  0  0  0  0  0  0  0
    0.0000    0.0000    0.0000 H   0  0  0  0  0  0  0  0  0  0  0  0
    0.0000    0.0000    0.0000 H   0  0  0  0  0  0  0  0  0  0  0  0
    0.0000    0.0000    0.0000 H   0  0  0  0  0  0  0  0  0  0  0  0
    0.0000    0.0000    0.0000 H   0  0  0  0  0  0  0  0  0  0  0  0
    0.0000    0.0000    0.0000 H   0  0  0  0  0  0  0  0  0  0  0  0
    0.0000    0.0000    0.0000 H   0  0  0  0  0  0  0  0  0  0  0  0
    0.0000    0.0000    0.0000 H   0  0  0  0  0  0  0  0  0  0  0  0
    0.0000    0.0000    0.0000 H   0  0  0  0  0  0  0  0  0  0  0  0
    0.0000    0.0000    0.0000 H   0  0  0  0  0  0  0  0  0  0  0  0
    0.0000    0.0000    0.0000 H   0  0  0  0  0  0  0  0  0  0  0  0
    0.0000    0.0000    0.0000 H   0  0  0  0  0  0  0  0  0  0  0  0
    0.0000    0.0000    0.0000 H   0  0  0  0  0  0  0  0  0  0  0  0
    0.0000    0.0000    0.0000 H   0  0  0  0  0  0  0  0  0  0  0  0
    0.0000    0.0000    0.0000 H   0  0  0  0  0  0  0  0  0  0  0  0
    0.0000    0.0000    0.0000 H   0  0  0  0  0  0  0  0  0  0  0  0
    0.0000    0.0000    0.0000 H   0  0  0  0  0  0  0  0  0  0  0  0
    0.0000    0.0000    0.0000 H   0  0  0  0  0  0  0  0  0  0  0  0
    0.0000    0.0000    0.0000 H   0  0  0  0  0  0  0  0  0  0  0  0
    0.0000    0.0000    0.0000 H   0  0  0  0  0  0  0  0  0  0  0  0
    0.0000    0.0000    0.0000 H   0  0  0  0  0  0  0  0  0  0  0  0
    0.0000    0.0000    0.0000 H   0  0  0  0  0  0  0  0  0  0  0  0
    0.0000    0.0000    0.0000 H   0  0  0  0  0  0  0  0  0  0  0  0
    0.0000    0.0000    0.0000 H   0  0  0  0  0  0  0  0  0  0  0  0
    0.0000    0.0000    0.0000 H   0  0  0  0  0  0  0  0  0  0  0  0
    0.0000    0.0000    0.0000 H   0  0  0  0  0  0  0  0  0  0  0  0
  1 17  2  0
  2 19  1  0
  3 19  2  0
  4 22  1  0
  4 26  1  0
  5 22  2  0
  6  7  1  0
  6 11  1  0
  6 12  1  0
  7  9  1  0
  7 17  1  0
 10  8  1  1
 18  8  1  1
  9 13  1  0
  9 19  1  1
 10 14  1  0
 10 17  1  0
 11 15  1  0
 12 16  1  0
 13 15  1  0
 14 16  1  0
 18 20  1  0
 18 22  1  0
 20 21  1  0
 21 23  1  0
 23 24  2  0
 23 25  1  0
 24 27  1  0
 25 28  2  0
 26 29  1  0
 27 30  2  0
 28 30  1  0
  2 31  1  0
  8 32  1  0
  9 33  1  0
 10 34  1  0
 11 35  1  0
 11 36  1  0
 12 37  1  0
 12 38  1  0
 13 39  1  0
 13 40  1  0
 14 41  1  0
 14 42  1  0
 15 43  1  0
 15 44  1  0
 16 45  1  0
 16 46  1  0
 18 47  1  0
 20 48  1  0
 20 49  1  0
 21 50  1  0
 21 51  1  0
 24 52  1  0
 25 53  1  0
 26 54  1  0
 26 55  1  0
 27 56  1  0
 28 57  1  0
 29 58  1  0
 29 59  1  0
 29 60  1  0
 30 61  1  0
M  END
>  <ALOGPS_LOGP>  (1) 
-0.20

>  <ALOGPS_LOGS>  (1) 
-2.59

>  <ALOGPS_SOLUBILITY>  (1) 
1.06e+00 g/l

>  <DATABASE_ID>  (1) 
DB01340

>  <DATABASE_NAME>  (1) 
drugbank

>  <DRUGBANK_ID>  (1) 
DB01340

>  <DRUG_GROUPS>  (1) 
approved

>  <EXACT_MASS>  (1) 
417.226371117

>  <FORMULA>  (1) 
C22H31N3O5

>  <GENERIC_NAME>  (1) 
Cilazapril

>  <INCHI_IDENTIFIER>  (1) 
InChI=1S/C22H31N3O5/c1-2-30-22(29)18(13-12-16-8-4-3-5-9-16)23-17-10-6-14-24-15-7-11-19(21(27)28)25(24)20(17)26/h3-5,8-9,17-19,23H,2,6-7,10-15H2,1H3,(H,27,28)/t17-,18-,19-/m0/s1

>  <INCHI_KEY>  (1) 
HHHKFGXWKKUNCY-FHWLQOOXSA-N

>  <INTERNATIONAL_BRANDS>  (1) 
Dynorm; Inhibace; Inhibestril; Vascace; Zapril; Zobox

>  <JCHEM_ACCEPTOR_COUNT>  (1) 
6

>  <JCHEM_AVERAGE_POLARIZABILITY>  (1) 
44.72753415687893

>  <JCHEM_BIOAVAILABILITY>  (1) 
1

>  <JCHEM_DONOR_COUNT>  (1) 
2

>  <JCHEM_FORMAL_CHARGE>  (1) 
0

>  <JCHEM_GHOSE_FILTER>  (1) 
1

>  <JCHEM_IUPAC>  (1) 
(1S,9S)-9-{[(2S)-1-ethoxy-1-oxo-4-phenylbutan-2-yl]amino}-10-oxo-octahydro-1H-pyridazino[1,2-a][1,2]diazepine-1-carboxylic acid

>  <JCHEM_LOGP>  (1) 
-0.007882287847574103

>  <JCHEM_MDDR_LIKE_RULE>  (1) 
1

>  <JCHEM_NUMBER_OF_RINGS>  (1) 
3

>  <JCHEM_PHYSIOLOGICAL_CHARGE>  (1) 
-1

>  <JCHEM_PKA_STRONGEST_ACIDIC>  (1) 
3.409948821751159

>  <JCHEM_PKA_STRONGEST_BASIC>  (1) 
5.352254250776891

>  <JCHEM_POLAR_SURFACE_AREA>  (1) 
99.17999999999998

>  <JCHEM_REFRACTIVITY>  (1) 
110.56370000000003

>  <JCHEM_ROTATABLE_BOND_COUNT>  (1) 
9

>  <JCHEM_RULE_OF_FIVE>  (1) 
1

>  <JCHEM_TRADITIONAL_IUPAC>  (1) 
inhibace

>  <JCHEM_VEBER_RULE>  (1) 
0

>  <MOLECULAR_WEIGHT>  (1) 
417.4986

>  <PRODUCTS>  (1) 
Apo-cilazapril; Apo-cilazapril/hctz; Cilazapril; Co Cilazapril; Dom-cilazapril; Inhibace Plus - Tab; Inhibace Tab 1mg; Inhibace Tab 2.5mg; Inhibace Tab 5mg; Mylan-cilazapril; Novo-cilazapril/hctz; Ntp-cilazapril; PHL-cilazapril; PMS-cilazapril; Teva-cilazapril

>  <SALTS>  (1) 
Cilazapril monohydrate

>  <SMILES>  (1) 
CCOC(=O)[C@H](CCC1=CC=CC=C1)N[C@H]1CCCN2CCC[C@H](N2C1=O)C(O)=O

>  <SYNONYMS>  (1) 
Cilazapril; Cilazapril anhydrous; Cilazaprilum 

$$$$
