
     RDKit          2D

 31 30  0  0  0  0  0  0  0  0999 V2000
    0.8574   -1.0725    0.0000 C   0  0  0  0  0  0  0  0  0  0  0  0
    0.1429   -1.4850    0.0000 C   0  0  0  0  0  0  0  0  0  0  0  0
   -0.5716   -1.0725    0.0000 C   0  0  0  0  0  0  0  0  0  0  0  0
   -0.5716   -0.2475    0.0000 C   0  0  0  0  0  0  0  0  0  0  0  0
    0.1429    0.1650    0.0000 C   0  0  0  0  0  0  0  0  0  0  0  0
    0.8574   -0.2475    0.0000 C   0  0  0  0  0  0  0  0  0  0  0  0
    0.1429    0.9900    0.0000 C   0  0  0  0  0  0  0  0  0  0  0  0
   -0.5716    1.4025    0.0000 O   0  0  0  0  0  0  0  0  0  0  0  0
    0.8574    1.4025    0.0000 O   0  0  0  0  0  0  0  0  0  0  0  0
   -1.2860    0.1650    0.0000 O   0  0  0  0  0  0  0  0  0  0  0  0
    5.1222   -1.0725    0.0000 C   0  0  0  0  0  0  0  0  0  0  0  0
    4.4077   -1.4850    0.0000 C   0  0  0  0  0  0  0  0  0  0  0  0
    3.6933   -1.0725    0.0000 C   0  0  0  0  0  0  0  0  0  0  0  0
    3.6933   -0.2475    0.0000 C   0  0  0  0  0  0  0  0  0  0  0  0
    4.4077    0.1650    0.0000 C   0  0  0  0  0  0  0  0  0  0  0  0
    5.1222   -0.2475    0.0000 C   0  0  0  0  0  0  0  0  0  0  0  0
    4.4077    0.9900    0.0000 C   0  0  0  0  0  0  0  0  0  0  0  0
    3.6933    1.4025    0.0000 O   0  0  0  0  0  0  0  0  0  0  0  0
    5.1222    1.4025    0.0000 O   0  0  0  0  0  0  0  0  0  0  0  0
    2.9788    0.1650    0.0000 O   0  0  0  0  0  0  0  0  0  0  0  0
    0.0000   -3.1350    0.0000 Mg  0  0  0  0  0  0  0  0  0  0  0  0
    0.0000    0.0000    0.0000 H   0  0  0  0  0  0  0  0  0  0  0  0
    0.0000    0.0000    0.0000 H   0  0  0  0  0  0  0  0  0  0  0  0
    0.0000    0.0000    0.0000 H   0  0  0  0  0  0  0  0  0  0  0  0
    0.0000    0.0000    0.0000 H   0  0  0  0  0  0  0  0  0  0  0  0
    0.0000    0.0000    0.0000 H   0  0  0  0  0  0  0  0  0  0  0  0
    0.0000    0.0000    0.0000 H   0  0  0  0  0  0  0  0  0  0  0  0
    0.0000    0.0000    0.0000 H   0  0  0  0  0  0  0  0  0  0  0  0
    0.0000    0.0000    0.0000 H   0  0  0  0  0  0  0  0  0  0  0  0
    0.0000    0.0000    0.0000 H   0  0  0  0  0  0  0  0  0  0  0  0
    0.0000    0.0000    0.0000 H   0  0  0  0  0  0  0  0  0  0  0  0
  1  2  2  0
  2  3  1  0
  3  4  2  0
  4  5  1  0
  5  6  2  0
  1  6  1  0
  5  7  1  0
  7  8  2  0
  7  9  1  0
  4 10  1  0
 11 12  2  0
 12 13  1  0
 13 14  2  0
 14 15  1  0
 15 16  2  0
 11 16  1  0
 15 17  1  0
 17 18  2  0
 17 19  1  0
 14 20  1  0
  1 22  1  0
  2 23  1  0
  3 24  1  0
  6 25  1  0
 10 26  1  0
 11 27  1  0
 12 28  1  0
 13 29  1  0
 16 30  1  0
 20 31  1  0
M  CHG  3   9  -1  19  -1  21   2
M  END
>  <ALOGPS_LOGP>  (1) 
2.86

>  <ALOGPS_LOGS>  (1) 
-3.64

>  <ALOGPS_SOLUBILITY>  (1) 
6.86e-02 g/l

>  <DATABASE_ID>  (1) 
DB01397

>  <DATABASE_NAME>  (1) 
drugbank

>  <DRUGBANK_ID>  (1) 
DB01397

>  <DRUG_GROUPS>  (1) 
approved

>  <EXACT_MASS>  (1) 
298.03277995

>  <FORMULA>  (1) 
C14H10MgO6

>  <GENERIC_NAME>  (1) 
Magnesium salicylate

>  <INCHI_IDENTIFIER>  (1) 
InChI=1S/2C7H6O3.Mg/c2*8-6-4-2-1-3-5(6)7(9)10;/h2*1-4,8H,(H,9,10);/q;;+2/p-2

>  <INCHI_KEY>  (1) 
MQHWFIOJQSCFNM-UHFFFAOYSA-L

>  <JCHEM_ACCEPTOR_COUNT>  (1) 
3

>  <JCHEM_AVERAGE_POLARIZABILITY>  (1) 
12.37590200842578

>  <JCHEM_BIOAVAILABILITY>  (1) 
1

>  <JCHEM_DONOR_COUNT>  (1) 
1

>  <JCHEM_FORMAL_CHARGE>  (1) 
0

>  <JCHEM_GHOSE_FILTER>  (1) 
1

>  <JCHEM_IUPAC>  (1) 
magnesium(2+) ion bis(2-hydroxybenzoate)

>  <JCHEM_LOGP>  (1) 
1.977263402333333

>  <JCHEM_MDDR_LIKE_RULE>  (1) 
0

>  <JCHEM_NUMBER_OF_RINGS>  (1) 
2

>  <JCHEM_PHYSIOLOGICAL_CHARGE>  (1) 
-1

>  <JCHEM_PKA>  (1) 
13.228682517040586

>  <JCHEM_PKA_STRONGEST_ACIDIC>  (1) 
2.7897391795725692

>  <JCHEM_PKA_STRONGEST_BASIC>  (1) 
-6.285929432184692

>  <JCHEM_POLAR_SURFACE_AREA>  (1) 
60.36

>  <JCHEM_REFRACTIVITY>  (1) 
46.132200000000005

>  <JCHEM_ROTATABLE_BOND_COUNT>  (1) 
2

>  <JCHEM_RULE_OF_FIVE>  (1) 
1

>  <JCHEM_TRADITIONAL_IUPAC>  (1) 
magnesium(2+) ion disalicylate

>  <JCHEM_VEBER_RULE>  (1) 
0

>  <MOLECULAR_WEIGHT>  (1) 
298.531

>  <PRODUCTS>  (1) 
Arthriten Tablets; Back Relief; Back-ese M Tab 325mg; Back-ese M Tablets 325 mg; Backache Aid; Backache Relief; Backache Relief Extra Strength; Diurex Water Pills; Doan's Backache Pills 325mg; Doans Extra Strength; Extra Strength Backache Relief; Herbogesic; Kneerelief Tablets; MEDIQUE Back Pain Off; Otis Clapp Back Quell; Pain Aid BRF; Pamprin Cramp Menstrual Pain Relief; Trilisate Tab; Vica-cet

>  <SALTS>  (1) 
Magnesium salicylate tetrahydrate

>  <SMILES>  (1) 
[Mg++].OC1=CC=CC=C1C([O-])=O.OC1=CC=CC=C1C([O-])=O

$$$$
