1053
     RDKit          2D

 41 43  0  0  1  0  0  0  0  0999 V2000
    7.6201    1.0703    0.0000 S   0  0  0  0  0  0  0  0  0  0  0  0
    5.4215   -0.5975    0.0000 O   0  0  0  0  0  0  0  0  0  0  0  0
    7.3230   -1.6623    0.0000 O   0  0  0  0  0  0  0  0  0  0  0  0
    8.6819   -1.2207    0.0000 O   0  0  0  0  0  0  0  0  0  0  0  0
    4.4089    0.3950    0.0000 O   0  0  0  0  0  0  0  0  0  0  0  0
    6.8354   -0.0096    0.0000 N   0  0  0  0  0  0  0  0  0  0  0  0
    5.4215    1.4034    0.0000 N   0  0  0  0  0  0  0  0  0  0  0  0
    6.8354    0.8154    0.0000 C   0  0  0  0  0  0  0  0  0  0  0  0
    8.1049    0.4029    0.0000 C   0  0  0  0  0  0  0  0  0  0  0  0
    7.6201   -0.2646    0.0000 C   0  0  0  0  0  0  0  0  0  0  0  0
    6.0036    0.8188    0.0000 C   0  0  0  0  0  0  0  0  0  0  0  0
    6.0036   -0.0130    0.0000 C   0  0  0  0  0  0  0  0  0  0  0  0
    8.7724   -0.0820    0.0000 C   0  0  0  0  0  0  0  0  0  0  0  0
    8.7724    0.8878    0.0000 C   0  0  0  0  0  0  0  0  0  0  0  0
    7.8750   -1.0491    0.0000 C   0  0  0  0  0  0  0  0  0  0  0  0
    4.6241    1.1915    0.0000 C   0  0  0  0  0  0  0  0  0  0  0  0
    4.0420    1.7760    0.0000 C   0  0  0  0  0  0  0  0  0  0  0  0
    3.2446    1.5642    0.0000 C   0  0  0  0  0  0  0  0  0  0  0  0
    3.0295    0.7677    0.0000 C   0  0  0  0  0  0  0  0  0  0  0  0
    2.6625    2.1487    0.0000 C   0  0  0  0  0  0  0  0  0  0  0  0
    2.2322    0.5558    0.0000 C   0  0  0  0  0  0  0  0  0  0  0  0
    1.8651    1.9368    0.0000 C   0  0  0  0  0  0  0  0  0  0  0  0
    1.6500    1.1404    0.0000 C   0  0  0  0  0  0  0  0  0  0  0  0
    0.0000    0.0000    0.0000 H   0  0  0  0  0  0  0  0  0  0  0  0
    0.0000    0.0000    0.0000 H   0  0  0  0  0  0  0  0  0  0  0  0
    0.0000    0.0000    0.0000 H   0  0  0  0  0  0  0  0  0  0  0  0
    0.0000    0.0000    0.0000 H   0  0  0  0  0  0  0  0  0  0  0  0
    0.0000    0.0000    0.0000 H   0  0  0  0  0  0  0  0  0  0  0  0
    0.0000    0.0000    0.0000 H   0  0  0  0  0  0  0  0  0  0  0  0
    0.0000    0.0000    0.0000 H   0  0  0  0  0  0  0  0  0  0  0  0
    0.0000    0.0000    0.0000 H   0  0  0  0  0  0  0  0  0  0  0  0
    0.0000    0.0000    0.0000 H   0  0  0  0  0  0  0  0  0  0  0  0
    0.0000    0.0000    0.0000 H   0  0  0  0  0  0  0  0  0  0  0  0
    0.0000    0.0000    0.0000 H   0  0  0  0  0  0  0  0  0  0  0  0
    0.0000    0.0000    0.0000 H   0  0  0  0  0  0  0  0  0  0  0  0
    0.0000    0.0000    0.0000 H   0  0  0  0  0  0  0  0  0  0  0  0
    0.0000    0.0000    0.0000 H   0  0  0  0  0  0  0  0  0  0  0  0
    0.0000    0.0000    0.0000 H   0  0  0  0  0  0  0  0  0  0  0  0
    0.0000    0.0000    0.0000 H   0  0  0  0  0  0  0  0  0  0  0  0
    0.0000    0.0000    0.0000 H   0  0  0  0  0  0  0  0  0  0  0  0
    0.0000    0.0000    0.0000 H   0  0  0  0  0  0  0  0  0  0  0  0
  1  8  1  0
  1  9  1  0
  2 12  2  0
  3 15  1  0
  4 15  2  0
  5 16  2  0
  6  8  1  0
  6 10  1  0
  6 12  1  0
 11  7  1  1
  7 16  1  0
  8 11  1  0
  9 10  1  0
  9 13  1  0
  9 14  1  0
 10 15  1  6
 11 12  1  0
 16 17  1  0
 17 18  1  0
 18 19  2  0
 18 20  1  0
 19 21  1  0
 20 22  2  0
 21 23  2  0
 22 23  1  0
  3 24  1  0
  7 25  1  0
  8 26  1  6
 10 27  1  0
 11 28  1  0
 13 29  1  0
 13 30  1  0
 13 31  1  0
 14 32  1  0
 14 33  1  0
 14 34  1  0
 17 35  1  0
 17 36  1  0
 19 37  1  0
 20 38  1  0
 21 39  1  0
 22 40  1  0
 23 41  1  0
M  END
>  <ALOGPS_LOGP>  (1) 
1.92

>  <ALOGPS_LOGS>  (1) 
-3.07

>  <ALOGPS_SOLUBILITY>  (1) 
2.85e-01 g/l

>  <DATABASE_ID>  (1) 
DB01053

>  <DATABASE_NAME>  (1) 
drugbank

>  <DRUGBANK_ID>  (1) 
DB01053

>  <DRUG_GROUPS>  (1) 
approved; vet_approved

>  <EXACT_MASS>  (1) 
334.098727764

>  <FORMULA>  (1) 
C16H18N2O4S

>  <GENERIC_NAME>  (1) 
Benzylpenicillin

>  <INCHI_IDENTIFIER>  (1) 
InChI=1S/C16H18N2O4S/c1-16(2)12(15(21)22)18-13(20)11(14(18)23-16)17-10(19)8-9-6-4-3-5-7-9/h3-7,11-12,14H,8H2,1-2H3,(H,17,19)(H,21,22)/t11-,12+,14-/m1/s1

>  <INCHI_KEY>  (1) 
JGSARLDLIJGVTE-MBNYWOFBSA-N

>  <JCHEM_ACCEPTOR_COUNT>  (1) 
4

>  <JCHEM_AVERAGE_POLARIZABILITY>  (1) 
33.541594084546915

>  <JCHEM_BIOAVAILABILITY>  (1) 
1

>  <JCHEM_DONOR_COUNT>  (1) 
2

>  <JCHEM_FORMAL_CHARGE>  (1) 
0

>  <JCHEM_GHOSE_FILTER>  (1) 
1

>  <JCHEM_IUPAC>  (1) 
(2S,5R,6R)-3,3-dimethyl-7-oxo-6-(2-phenylacetamido)-4-thia-1-azabicyclo[3.2.0]heptane-2-carboxylic acid

>  <JCHEM_LOGP>  (1) 
1.0806779529999997

>  <JCHEM_MDDR_LIKE_RULE>  (1) 
0

>  <JCHEM_NUMBER_OF_RINGS>  (1) 
3

>  <JCHEM_PHYSIOLOGICAL_CHARGE>  (1) 
-1

>  <JCHEM_PKA>  (1) 
12.119397282151533

>  <JCHEM_PKA_STRONGEST_ACIDIC>  (1) 
3.5292810836901047

>  <JCHEM_PKA_STRONGEST_BASIC>  (1) 
-2.634074595453018

>  <JCHEM_POLAR_SURFACE_AREA>  (1) 
86.71

>  <JCHEM_REFRACTIVITY>  (1) 
84.52780000000003

>  <JCHEM_ROTATABLE_BOND_COUNT>  (1) 
4

>  <JCHEM_RULE_OF_FIVE>  (1) 
1

>  <JCHEM_TRADITIONAL_IUPAC>  (1) 
penicillin G

>  <JCHEM_VEBER_RULE>  (1) 
0

>  <MOLECULAR_WEIGHT>  (1) 
334.39

>  <PRODUCTS>  (1) 
Bicillin A-P Injection Pws; Crystapen; Crystapen 1 000 000 Iu Pws; Crystapen 10000000 Iu Pws; Crystapen 10m I.U.; Crystapen 1m I.U.; Crystapen 5m I.U.; Megacillin 500 Tablets; Novo-pen G 500; Penicillin G K for Inj USP 1000000u/vial; Penicillin G K for Inj,usp 10000000u/vial; Penicillin G K for Inj,usp 5000000u/vial; Penicillin G Na for Inj USP 10000000u/vial; Penicillin G Na for Inj USP 1000000u/vial; Penicillin G Na for Inj USP 5000000u/vial; Penicillin G Pot. for Inj. (10millioniu) USP; Penicillin G Potassium; Penicillin G Potassium Inj 10000000iu; Penicillin G Potassium Inj 10000000unit/vial; Penicillin G Potassium Inj 1000000iu; Penicillin G Potassium Inj 1000000unit/vial; Penicillin G Potassium Inj 5000000iu; Penicillin G Potassium Inj 5000000unit/vial; Penicillin G Potassium for Injection, USP; Penicillin G Sod. for Inj. (10millioniu) USP; Penicillin G Sod. for Inj. (1millioniu) USP; Penicillin G Sodium; Penicillin G Sodium Inj 10000000iu; Penicillin G Sodium Inj 1000000iu; Penicillin G Sodium Inj 5000000iu; Penicillin G Sodium for Injection; Penicillin G Sodium for Injection, USP; Pfizerpen

>  <SALTS>  (1) 
Benethamine penicillin; Benzylpenicillin potassium; Benzylpenicillin sodium

>  <SECONDARY_ACCESSION_NUMBERS>  (1) 
APRD00646; DB11612

>  <SMILES>  (1) 
[H][C@]12SC(C)(C)[C@@H](N1C(=O)[C@H]2NC(=O)CC1=CC=CC=C1)C(O)=O

>  <SYNONYMS>  (1) 
(2S,5R,6R)-3,3-dimethyl-7-oxo-6-(phenylacetamido)-4-thia-1-azabicyclo[3.2.0]heptane-2-carboxylic acid; 6-(2-phenylacetamido)penicillanic acid; Bencilpenicilina; bensylpenicillin; benzyl benicillin; Benzylp√©nicilline; Benzylpenicillinic acid; Benzylpenicillinum; Free penicillin II; PCG; Penicillin G; PG

$$$$
