1216
     RDKit          2D

 63 66  0  0  1  0  0  0  0  0999 V2000
    6.5853    1.7964    0.0000 O   0  0  0  0  0  0  0  0  0  0  0  0
    1.6500   -2.3715    0.0000 O   0  0  0  0  0  0  0  0  0  0  0  0
    3.1413   -2.4093    0.0000 N   0  0  0  0  0  0  0  0  0  0  0  0
    7.9436    1.3524    0.0000 N   0  0  0  0  0  0  0  0  0  0  0  0
    6.0994   -0.6783    0.0000 C   0  0  0  0  0  0  0  0  0  0  0  0
    6.0994    0.1467    0.0000 C   0  0  0  0  0  0  0  0  0  0  0  0
    5.3849   -1.0908    0.0000 C   0  0  0  0  0  0  0  0  0  0  0  0
    4.6704   -0.6783    0.0000 C   0  0  0  0  0  0  0  0  0  0  0  0
    3.9196   -1.0964    0.0000 C   0  0  0  0  0  0  0  0  0  0  0  0
    6.8800    0.3981    0.0000 C   0  0  0  0  0  0  0  0  0  0  0  0
    5.3849    0.5592    0.0000 C   0  0  0  0  0  0  0  0  0  0  0  0
    4.6704    0.1467    0.0000 C   0  0  0  0  0  0  0  0  0  0  0  0
    6.8800   -0.9297    0.0000 C   0  0  0  0  0  0  0  0  0  0  0  0
    5.3981   -1.9501    0.0000 C   0  0  0  0  0  0  0  0  0  0  0  0
    7.3614   -0.2658    0.0000 C   0  0  0  0  0  0  0  0  0  0  0  0
    3.9130   -1.9558    0.0000 C   0  0  0  0  0  0  0  0  0  0  0  0
    4.6572   -2.3854    0.0000 C   0  0  0  0  0  0  0  0  0  0  0  0
    6.0994    0.9717    0.0000 C   0  0  0  0  0  0  0  0  0  0  0  0
    3.9260   -0.2714    0.0000 C   0  0  0  0  0  0  0  0  0  0  0  0
    3.1550   -0.6310    0.0000 C   0  0  0  0  0  0  0  0  0  0  0  0
    7.1363    1.1823    0.0000 C   0  0  0  0  0  0  0  0  0  0  0  0
    2.3730   -1.0667    0.0000 C   0  0  0  0  0  0  0  0  0  0  0  0
    2.3660   -1.9617    0.0000 C   0  0  0  0  0  0  0  0  0  0  0  0
    8.1998    2.1366    0.0000 C   0  0  0  0  0  0  0  0  0  0  0  0
    8.4561    2.9208    0.0000 C   0  0  0  0  0  0  0  0  0  0  0  0
    8.9841    1.8804    0.0000 C   0  0  0  0  0  0  0  0  0  0  0  0
    7.4157    2.3929    0.0000 C   0  0  0  0  0  0  0  0  0  0  0  0
    0.0000    0.0000    0.0000 H   0  0  0  0  0  0  0  0  0  0  0  0
    0.0000    0.0000    0.0000 H   0  0  0  0  0  0  0  0  0  0  0  0
    0.0000    0.0000    0.0000 H   0  0  0  0  0  0  0  0  0  0  0  0
    0.0000    0.0000    0.0000 H   0  0  0  0  0  0  0  0  0  0  0  0
    0.0000    0.0000    0.0000 H   0  0  0  0  0  0  0  0  0  0  0  0
    0.0000    0.0000    0.0000 H   0  0  0  0  0  0  0  0  0  0  0  0
    0.0000    0.0000    0.0000 H   0  0  0  0  0  0  0  0  0  0  0  0
    0.0000    0.0000    0.0000 H   0  0  0  0  0  0  0  0  0  0  0  0
    0.0000    0.0000    0.0000 H   0  0  0  0  0  0  0  0  0  0  0  0
    0.0000    0.0000    0.0000 H   0  0  0  0  0  0  0  0  0  0  0  0
    0.0000    0.0000    0.0000 H   0  0  0  0  0  0  0  0  0  0  0  0
    0.0000    0.0000    0.0000 H   0  0  0  0  0  0  0  0  0  0  0  0
    0.0000    0.0000    0.0000 H   0  0  0  0  0  0  0  0  0  0  0  0
    0.0000    0.0000    0.0000 H   0  0  0  0  0  0  0  0  0  0  0  0
    0.0000    0.0000    0.0000 H   0  0  0  0  0  0  0  0  0  0  0  0
    0.0000    0.0000    0.0000 H   0  0  0  0  0  0  0  0  0  0  0  0
    0.0000    0.0000    0.0000 H   0  0  0  0  0  0  0  0  0  0  0  0
    0.0000    0.0000    0.0000 H   0  0  0  0  0  0  0  0  0  0  0  0
    0.0000    0.0000    0.0000 H   0  0  0  0  0  0  0  0  0  0  0  0
    0.0000    0.0000    0.0000 H   0  0  0  0  0  0  0  0  0  0  0  0
    0.0000    0.0000    0.0000 H   0  0  0  0  0  0  0  0  0  0  0  0
    0.0000    0.0000    0.0000 H   0  0  0  0  0  0  0  0  0  0  0  0
    0.0000    0.0000    0.0000 H   0  0  0  0  0  0  0  0  0  0  0  0
    0.0000    0.0000    0.0000 H   0  0  0  0  0  0  0  0  0  0  0  0
    0.0000    0.0000    0.0000 H   0  0  0  0  0  0  0  0  0  0  0  0
    0.0000    0.0000    0.0000 H   0  0  0  0  0  0  0  0  0  0  0  0
    0.0000    0.0000    0.0000 H   0  0  0  0  0  0  0  0  0  0  0  0
    0.0000    0.0000    0.0000 H   0  0  0  0  0  0  0  0  0  0  0  0
    0.0000    0.0000    0.0000 H   0  0  0  0  0  0  0  0  0  0  0  0
    0.0000    0.0000    0.0000 H   0  0  0  0  0  0  0  0  0  0  0  0
    0.0000    0.0000    0.0000 H   0  0  0  0  0  0  0  0  0  0  0  0
    0.0000    0.0000    0.0000 H   0  0  0  0  0  0  0  0  0  0  0  0
    0.0000    0.0000    0.0000 H   0  0  0  0  0  0  0  0  0  0  0  0
    0.0000    0.0000    0.0000 H   0  0  0  0  0  0  0  0  0  0  0  0
    0.0000    0.0000    0.0000 H   0  0  0  0  0  0  0  0  0  0  0  0
    0.0000    0.0000    0.0000 H   0  0  0  0  0  0  0  0  0  0  0  0
  1 21  2  0
  2 23  2  0
  3 16  1  0
  3 23  1  0
  4 21  1  0
  4 24  1  0
  5  6  1  0
  5  7  1  0
  5 13  1  0
  6 10  1  0
  6 11  1  0
  6 18  1  1
  7  8  1  0
  7 14  1  0
  8  9  1  0
  8 12  1  0
  9 16  1  0
  9 19  1  1
  9 20  1  0
 10 15  1  0
 10 21  1  1
 11 12  1  0
 13 15  1  0
 14 17  1  0
 16 17  1  0
 20 22  2  0
 22 23  1  0
 24 25  1  0
 24 26  1  0
 24 27  1  0
  3 28  1  0
  4 29  1  0
  5 30  1  6
  7 31  1  1
  8 32  1  6
 10 33  1  0
 11 34  1  0
 11 35  1  0
 12 36  1  0
 12 37  1  0
 13 38  1  0
 13 39  1  0
 14 40  1  0
 14 41  1  0
 15 42  1  0
 15 43  1  0
 16 44  1  6
 17 45  1  0
 17 46  1  0
 18 47  1  0
 18 48  1  0
 18 49  1  0
 19 50  1  0
 19 51  1  0
 19 52  1  0
 20 53  1  0
 22 54  1  0
 25 55  1  0
 25 56  1  0
 25 57  1  0
 26 58  1  0
 26 59  1  0
 26 60  1  0
 27 61  1  0
 27 62  1  0
 27 63  1  0
M  END
>  <ALOGPS_LOGP>  (1) 
3.53

>  <ALOGPS_LOGS>  (1) 
-5.27

>  <ALOGPS_SOLUBILITY>  (1) 
1.98e-03 g/l

>  <DATABASE_ID>  (1) 
DB01216

>  <DATABASE_NAME>  (1) 
drugbank

>  <DRUGBANK_ID>  (1) 
DB01216

>  <DRUG_GROUPS>  (1) 
approved

>  <EXACT_MASS>  (1) 
372.277678406

>  <FORMULA>  (1) 
C23H36N2O2

>  <GENERIC_NAME>  (1) 
Finasteride

>  <INCHI_IDENTIFIER>  (1) 
InChI=1S/C23H36N2O2/c1-21(2,3)25-20(27)17-8-7-15-14-6-9-18-23(5,13-11-19(26)24-18)16(14)10-12-22(15,17)4/h11,13-18H,6-10,12H2,1-5H3,(H,24,26)(H,25,27)/t14-,15-,16-,17+,18+,22-,23+/m0/s1

>  <INCHI_KEY>  (1) 
DBEPLOCGEIEOCV-WSBQPABSSA-N

>  <INTERNATIONAL_BRANDS>  (1) 
Finastid; Finpecia

>  <JCHEM_ACCEPTOR_COUNT>  (1) 
2

>  <JCHEM_AVERAGE_POLARIZABILITY>  (1) 
43.92500688556109

>  <JCHEM_BIOAVAILABILITY>  (1) 
1

>  <JCHEM_DONOR_COUNT>  (1) 
2

>  <JCHEM_FORMAL_CHARGE>  (1) 
0

>  <JCHEM_GHOSE_FILTER>  (1) 
1

>  <JCHEM_IUPAC>  (1) 
(1S,2R,7R,10S,11S,14S,15S)-N-tert-butyl-2,15-dimethyl-5-oxo-6-azatetracyclo[8.7.0.0²,⁷.0¹¹,¹⁵]heptadec-3-ene-14-carboxamide

>  <JCHEM_LOGP>  (1) 
3.073512022666667

>  <JCHEM_MDDR_LIKE_RULE>  (1) 
0

>  <JCHEM_NUMBER_OF_RINGS>  (1) 
4

>  <JCHEM_PHYSIOLOGICAL_CHARGE>  (1) 
0

>  <JCHEM_PKA>  (1) 
15.90977254859348

>  <JCHEM_PKA_STRONGEST_ACIDIC>  (1) 
14.525358358611708

>  <JCHEM_PKA_STRONGEST_BASIC>  (1) 
2.216285854977566

>  <JCHEM_POLAR_SURFACE_AREA>  (1) 
58.2

>  <JCHEM_REFRACTIVITY>  (1) 
108.196

>  <JCHEM_ROTATABLE_BOND_COUNT>  (1) 
2

>  <JCHEM_RULE_OF_FIVE>  (1) 
1

>  <JCHEM_TRADITIONAL_IUPAC>  (1) 
finasteride

>  <JCHEM_VEBER_RULE>  (1) 
0

>  <MOLECULAR_WEIGHT>  (1) 
372.5441

>  <PRODUCTS>  (1) 
Accel-finasteride Tablets USP; Ach-finasteride; Act Finasteride; Ag-finasteride; Apo-finasteride; Auro-finasteride; Auro-finasteride 1mg; Dom-finasteride; Finasteride; Jamp-finasteride; Mint-finasteride; Mylan-finasteride; Mylan-finasteride Hg; Ntp-finasteride; PMS-finasteride; Propecia; Proscar; Ran-finasteride; Ratio-finasteride; Riva-finasteride; Sandoz Finasteride; Sandoz Finasteride A; Teva-finasteride; Van-finasteride

>  <SECONDARY_ACCESSION_NUMBERS>  (1) 
APRD00632; DB07774

>  <SMILES>  (1) 
[H][C@@]12CC[C@H](C(=O)NC(C)(C)C)[C@@]1(C)CC[C@@]1([H])[C@@]2([H])CC[C@@]2([H])NC(=O)C=C[C@]12C

>  <SYNONYMS>  (1) 
Finasterida; Finasteridum

$$$$
