1000
     RDKit          2D

 46 48  0  0  1  0  0  0  0  0999 V2000
    6.2365    0.4594    0.0000 S   0  0  0  0  0  0  0  0  0  0  0  0
    4.0378   -1.2085    0.0000 O   0  0  0  0  0  0  0  0  0  0  0  0
    5.9394   -2.2733    0.0000 O   0  0  0  0  0  0  0  0  0  0  0  0
    3.3108   -0.2415    0.0000 O   0  0  0  0  0  0  0  0  0  0  0  0
    7.2984   -1.8317    0.0000 O   0  0  0  0  0  0  0  0  0  0  0  0
    5.4519   -0.6206    0.0000 N   0  0  0  0  0  0  0  0  0  0  0  0
    4.0378    0.7924    0.0000 N   0  0  0  0  0  0  0  0  0  0  0  0
    2.1838    0.4902    0.0000 N   0  0  0  0  0  0  0  0  0  0  0  0
    5.4519    0.2044    0.0000 C   0  0  0  0  0  0  0  0  0  0  0  0
    4.6200    0.2078    0.0000 C   0  0  0  0  0  0  0  0  0  0  0  0
    6.2365   -0.8755    0.0000 C   0  0  0  0  0  0  0  0  0  0  0  0
    6.7214   -0.2081    0.0000 C   0  0  0  0  0  0  0  0  0  0  0  0
    4.6200   -0.6240    0.0000 C   0  0  0  0  0  0  0  0  0  0  0  0
    2.6583    1.1651    0.0000 C   0  0  0  0  0  0  0  0  0  0  0  0
    7.3888   -0.6930    0.0000 C   0  0  0  0  0  0  0  0  0  0  0  0
    7.3888    0.2769    0.0000 C   0  0  0  0  0  0  0  0  0  0  0  0
    3.2429    1.7472    0.0000 C   0  0  0  0  0  0  0  0  0  0  0  0
    1.8619    1.3802    0.0000 C   0  0  0  0  0  0  0  0  0  0  0  0
    3.2405    0.5805    0.0000 C   0  0  0  0  0  0  0  0  0  0  0  0
    6.4914   -1.6602    0.0000 C   0  0  0  0  0  0  0  0  0  0  0  0
    3.0311    2.5446    0.0000 C   0  0  0  0  0  0  0  0  0  0  0  0
    1.6500    2.1776    0.0000 C   0  0  0  0  0  0  0  0  0  0  0  0
    2.2346    2.7597    0.0000 C   0  0  0  0  0  0  0  0  0  0  0  0
    0.0000    0.0000    0.0000 H   0  0  0  0  0  0  0  0  0  0  0  0
    0.0000    0.0000    0.0000 H   0  0  0  0  0  0  0  0  0  0  0  0
    0.0000    0.0000    0.0000 H   0  0  0  0  0  0  0  0  0  0  0  0
    0.0000    0.0000    0.0000 H   0  0  0  0  0  0  0  0  0  0  0  0
    0.0000    0.0000    0.0000 H   0  0  0  0  0  0  0  0  0  0  0  0
    0.0000    0.0000    0.0000 H   0  0  0  0  0  0  0  0  0  0  0  0
    0.0000    0.0000    0.0000 H   0  0  0  0  0  0  0  0  0  0  0  0
    0.0000    0.0000    0.0000 H   0  0  0  0  0  0  0  0  0  0  0  0
    0.0000    0.0000    0.0000 H   0  0  0  0  0  0  0  0  0  0  0  0
    0.0000    0.0000    0.0000 H   0  0  0  0  0  0  0  0  0  0  0  0
    0.0000    0.0000    0.0000 H   0  0  0  0  0  0  0  0  0  0  0  0
    0.0000    0.0000    0.0000 H   0  0  0  0  0  0  0  0  0  0  0  0
    0.0000    0.0000    0.0000 H   0  0  0  0  0  0  0  0  0  0  0  0
    0.0000    0.0000    0.0000 H   0  0  0  0  0  0  0  0  0  0  0  0
    0.0000    0.0000    0.0000 H   0  0  0  0  0  0  0  0  0  0  0  0
    0.0000    0.0000    0.0000 H   0  0  0  0  0  0  0  0  0  0  0  0
    0.0000    0.0000    0.0000 H   0  0  0  0  0  0  0  0  0  0  0  0
    0.0000    0.0000    0.0000 H   0  0  0  0  0  0  0  0  0  0  0  0
    0.0000    0.0000    0.0000 H   0  0  0  0  0  0  0  0  0  0  0  0
    0.0000    0.0000    0.0000 H   0  0  0  0  0  0  0  0  0  0  0  0
    0.0000    0.0000    0.0000 H   0  0  0  0  0  0  0  0  0  0  0  0
    0.0000    0.0000    0.0000 H   0  0  0  0  0  0  0  0  0  0  0  0
    0.0000    0.0000    0.0000 H   0  0  0  0  0  0  0  0  0  0  0  0
  1  9  1  0
  1 12  1  0
  2 13  2  0
  3 20  1  0
  4 19  2  0
  5 20  2  0
  6  9  1  0
  6 11  1  0
  6 13  1  0
 10  7  1  1
  7 19  1  0
  8 14  1  0
  9 10  1  0
 10 13  1  0
 11 12  1  0
 11 20  1  6
 12 15  1  0
 12 16  1  0
 14 17  1  0
 14 18  1  0
 14 19  1  0
 17 21  1  0
 18 22  1  0
 21 23  1  0
 22 23  1  0
  3 24  1  0
  7 25  1  0
  8 26  1  0
  8 27  1  0
  9 28  1  6
 10 29  1  0
 11 30  1  0
 15 31  1  0
 15 32  1  0
 15 33  1  0
 16 34  1  0
 16 35  1  0
 16 36  1  0
 17 37  1  0
 17 38  1  0
 18 39  1  0
 18 40  1  0
 21 41  1  0
 21 42  1  0
 22 43  1  0
 22 44  1  0
 23 45  1  0
 23 46  1  0
M  END
>  <ALOGPS_LOGP>  (1) 
0.56

>  <ALOGPS_LOGS>  (1) 
-2.26

>  <ALOGPS_SOLUBILITY>  (1) 
1.90e+00 g/l

>  <DATABASE_ID>  (1) 
DB01000

>  <DATABASE_NAME>  (1) 
drugbank

>  <DRUGBANK_ID>  (1) 
DB01000

>  <DRUG_GROUPS>  (1) 
approved

>  <EXACT_MASS>  (1) 
341.140926929

>  <FORMULA>  (1) 
C15H23N3O4S

>  <GENERIC_NAME>  (1) 
Cyclacillin

>  <INCHI_IDENTIFIER>  (1) 
InChI=1S/C15H23N3O4S/c1-14(2)9(12(20)21)18-10(19)8(11(18)23-14)17-13(22)15(16)6-4-3-5-7-15/h8-9,11H,3-7,16H2,1-2H3,(H,17,22)(H,20,21)/t8-,9+,11-/m1/s1

>  <INCHI_KEY>  (1) 
HGBLNBBNRORJKI-WCABBAIRSA-N

>  <INTERNATIONAL_BRANDS>  (1) 
Bastcillin; Calthor; Citosarin; Cyclapen; Cyclapen-W; Syngacillin; Ultracillin; Vastcillin; Vipicil; Wybital; Wyvital

>  <JCHEM_ACCEPTOR_COUNT>  (1) 
5

>  <JCHEM_AVERAGE_POLARIZABILITY>  (1) 
34.813095816532574

>  <JCHEM_BIOAVAILABILITY>  (1) 
1

>  <JCHEM_DONOR_COUNT>  (1) 
3

>  <JCHEM_FORMAL_CHARGE>  (1) 
0

>  <JCHEM_GHOSE_FILTER>  (1) 
0

>  <JCHEM_IUPAC>  (1) 
(2S,5R,6R)-6-(1-aminocyclohexaneamido)-3,3-dimethyl-7-oxo-4-thia-1-azabicyclo[3.2.0]heptane-2-carboxylic acid

>  <JCHEM_LOGP>  (1) 
-1.9145717180744428

>  <JCHEM_MDDR_LIKE_RULE>  (1) 
0

>  <JCHEM_NUMBER_OF_RINGS>  (1) 
3

>  <JCHEM_PHYSIOLOGICAL_CHARGE>  (1) 
0

>  <JCHEM_PKA>  (1) 
12.077202392830863

>  <JCHEM_PKA_STRONGEST_ACIDIC>  (1) 
3.304205732178046

>  <JCHEM_PKA_STRONGEST_BASIC>  (1) 
8.450183681449174

>  <JCHEM_POLAR_SURFACE_AREA>  (1) 
112.72999999999999

>  <JCHEM_REFRACTIVITY>  (1) 
84.2196

>  <JCHEM_ROTATABLE_BOND_COUNT>  (1) 
3

>  <JCHEM_RULE_OF_FIVE>  (1) 
1

>  <JCHEM_TRADITIONAL_IUPAC>  (1) 
cyclacillin

>  <JCHEM_VEBER_RULE>  (1) 
0

>  <MOLECULAR_WEIGHT>  (1) 
341.426

>  <SECONDARY_ACCESSION_NUMBERS>  (1) 
APRD00892

>  <SMILES>  (1) 
[H][C@]12SC(C)(C)[C@@H](N1C(=O)[C@H]2NC(=O)C1(N)CCCCC1)C(O)=O

>  <SYNONYMS>  (1) 
Ciclacilina; Ciclacillin; Ciclacilline; Ciclacillinum

$$$$
