1380
     RDKit          2D

 59 62  0  0  1  0  0  0  0  0999 V2000
    6.6263    1.5366    0.0000 O   0  0  0  0  0  0  0  0  0  0  0  0
    3.9559    0.9126    0.0000 O   0  0  0  0  0  0  0  0  0  0  0  0
    7.4634    2.0559    0.0000 O   0  0  0  0  0  0  0  0  0  0  0  0
    8.9696    1.3822    0.0000 O   0  0  0  0  0  0  0  0  0  0  0  0
    1.6500   -2.0181    0.0000 O   0  0  0  0  0  0  0  0  0  0  0  0
    9.8075    0.2246    0.0000 O   0  0  0  0  0  0  0  0  0  0  0  0
    6.0993   -0.3249    0.0000 C   0  0  0  0  0  0  0  0  0  0  0  0
    6.0993    0.5001    0.0000 C   0  0  0  0  0  0  0  0  0  0  0  0
    5.3849   -0.7374    0.0000 C   0  0  0  0  0  0  0  0  0  0  0  0
    4.6703   -0.3249    0.0000 C   0  0  0  0  0  0  0  0  0  0  0  0
    6.8799    0.7515    0.0000 C   0  0  0  0  0  0  0  0  0  0  0  0
    3.9196   -0.7431    0.0000 C   0  0  0  0  0  0  0  0  0  0  0  0
    6.8799   -0.5763    0.0000 C   0  0  0  0  0  0  0  0  0  0  0  0
    5.3849    0.9126    0.0000 C   0  0  0  0  0  0  0  0  0  0  0  0
    7.3614    0.0876    0.0000 C   0  0  0  0  0  0  0  0  0  0  0  0
    5.3981   -1.5966    0.0000 C   0  0  0  0  0  0  0  0  0  0  0  0
    4.6703    0.5001    0.0000 C   0  0  0  0  0  0  0  0  0  0  0  0
    6.0993    1.3251    0.0000 C   0  0  0  0  0  0  0  0  0  0  0  0
    3.9130   -1.6024    0.0000 C   0  0  0  0  0  0  0  0  0  0  0  0
    4.6572   -2.0321    0.0000 C   0  0  0  0  0  0  0  0  0  0  0  0
    3.1550   -0.2777    0.0000 C   0  0  0  0  0  0  0  0  0  0  0  0
    7.5482    1.2353    0.0000 C   0  0  0  0  0  0  0  0  0  0  0  0
    3.9259    0.0819    0.0000 C   0  0  0  0  0  0  0  0  0  0  0  0
    2.3729   -0.7132    0.0000 C   0  0  0  0  0  0  0  0  0  0  0  0
    3.1413   -2.0559    0.0000 C   0  0  0  0  0  0  0  0  0  0  0  0
    2.3660   -1.6083    0.0000 C   0  0  0  0  0  0  0  0  0  0  0  0
    8.3013    0.8984    0.0000 C   0  0  0  0  0  0  0  0  0  0  0  0
    9.7227    1.0453    0.0000 C   0  0  0  0  0  0  0  0  0  0  0  0
   10.3910    1.5291    0.0000 C   0  0  0  0  0  0  0  0  0  0  0  0
    0.0000    0.0000    0.0000 H   0  0  0  0  0  0  0  0  0  0  0  0
    0.0000    0.0000    0.0000 H   0  0  0  0  0  0  0  0  0  0  0  0
    0.0000    0.0000    0.0000 H   0  0  0  0  0  0  0  0  0  0  0  0
    0.0000    0.0000    0.0000 H   0  0  0  0  0  0  0  0  0  0  0  0
    0.0000    0.0000    0.0000 H   0  0  0  0  0  0  0  0  0  0  0  0
    0.0000    0.0000    0.0000 H   0  0  0  0  0  0  0  0  0  0  0  0
    0.0000    0.0000    0.0000 H   0  0  0  0  0  0  0  0  0  0  0  0
    0.0000    0.0000    0.0000 H   0  0  0  0  0  0  0  0  0  0  0  0
    0.0000    0.0000    0.0000 H   0  0  0  0  0  0  0  0  0  0  0  0
    0.0000    0.0000    0.0000 H   0  0  0  0  0  0  0  0  0  0  0  0
    0.0000    0.0000    0.0000 H   0  0  0  0  0  0  0  0  0  0  0  0
    0.0000    0.0000    0.0000 H   0  0  0  0  0  0  0  0  0  0  0  0
    0.0000    0.0000    0.0000 H   0  0  0  0  0  0  0  0  0  0  0  0
    0.0000    0.0000    0.0000 H   0  0  0  0  0  0  0  0  0  0  0  0
    0.0000    0.0000    0.0000 H   0  0  0  0  0  0  0  0  0  0  0  0
    0.0000    0.0000    0.0000 H   0  0  0  0  0  0  0  0  0  0  0  0
    0.0000    0.0000    0.0000 H   0  0  0  0  0  0  0  0  0  0  0  0
    0.0000    0.0000    0.0000 H   0  0  0  0  0  0  0  0  0  0  0  0
    0.0000    0.0000    0.0000 H   0  0  0  0  0  0  0  0  0  0  0  0
    0.0000    0.0000    0.0000 H   0  0  0  0  0  0  0  0  0  0  0  0
    0.0000    0.0000    0.0000 H   0  0  0  0  0  0  0  0  0  0  0  0
    0.0000    0.0000    0.0000 H   0  0  0  0  0  0  0  0  0  0  0  0
    0.0000    0.0000    0.0000 H   0  0  0  0  0  0  0  0  0  0  0  0
    0.0000    0.0000    0.0000 H   0  0  0  0  0  0  0  0  0  0  0  0
    0.0000    0.0000    0.0000 H   0  0  0  0  0  0  0  0  0  0  0  0
    0.0000    0.0000    0.0000 H   0  0  0  0  0  0  0  0  0  0  0  0
    0.0000    0.0000    0.0000 H   0  0  0  0  0  0  0  0  0  0  0  0
    0.0000    0.0000    0.0000 H   0  0  0  0  0  0  0  0  0  0  0  0
    0.0000    0.0000    0.0000 H   0  0  0  0  0  0  0  0  0  0  0  0
    0.0000    0.0000    0.0000 H   0  0  0  0  0  0  0  0  0  0  0  0
 11  1  1  6
  2 17  2  0
  3 22  2  0
  4 27  1  0
  4 28  1  0
  5 26  2  0
  6 28  2  0
  7  8  1  0
  7  9  1  0
  7 13  1  0
  8 11  1  0
  8 14  1  0
  8 18  1  1
  9 10  1  0
  9 16  1  0
 10 12  1  0
 10 17  1  0
 11 15  1  0
 11 22  1  0
 12 19  1  0
 12 21  1  0
 12 23  1  1
 13 15  1  0
 14 17  1  0
 16 20  1  0
 19 20  1  0
 19 25  2  0
 21 24  1  0
 22 27  1  0
 24 26  1  0
 25 26  1  0
 28 29  1  0
  1 30  1  0
  7 31  1  6
  9 32  1  1
 10 33  1  6
 13 34  1  0
 13 35  1  0
 14 36  1  0
 14 37  1  0
 15 38  1  0
 15 39  1  0
 16 40  1  0
 16 41  1  0
 18 42  1  0
 18 43  1  0
 18 44  1  0
 20 45  1  0
 20 46  1  0
 21 47  1  0
 21 48  1  0
 23 49  1  0
 23 50  1  0
 23 51  1  0
 24 52  1  0
 24 53  1  0
 25 54  1  0
 27 55  1  0
 27 56  1  0
 29 57  1  0
 29 58  1  0
 29 59  1  0
M  END
>  <ALOGPS_LOGP>  (1) 
2.35

>  <ALOGPS_LOGS>  (1) 
-4.16

>  <ALOGPS_SOLUBILITY>  (1) 
2.78e-02 g/l

>  <DATABASE_ID>  (1) 
DB01380

>  <DATABASE_NAME>  (1) 
drugbank

>  <DRUGBANK_ID>  (1) 
DB01380

>  <DRUG_GROUPS>  (1) 
approved

>  <EXACT_MASS>  (1) 
402.204238692

>  <FORMULA>  (1) 
C23H30O6

>  <GENERIC_NAME>  (1) 
Cortisone acetate

>  <INCHI_IDENTIFIER>  (1) 
InChI=1S/C23H30O6/c1-13(24)29-12-19(27)23(28)9-7-17-16-5-4-14-10-15(25)6-8-21(14,2)20(16)18(26)11-22(17,23)3/h10,16-17,20,28H,4-9,11-12H2,1-3H3/t16-,17-,20+,21-,22-,23-/m0/s1

>  <INCHI_KEY>  (1) 
ITRJWOMZKQRYTA-RFZYENFJSA-N

>  <INTERNATIONAL_BRANDS>  (1) 
Cortone Acetate 

>  <JCHEM_ACCEPTOR_COUNT>  (1) 
5

>  <JCHEM_AVERAGE_POLARIZABILITY>  (1) 
43.25027406896224

>  <JCHEM_BIOAVAILABILITY>  (1) 
1

>  <JCHEM_DONOR_COUNT>  (1) 
1

>  <JCHEM_FORMAL_CHARGE>  (1) 
0

>  <JCHEM_GHOSE_FILTER>  (1) 
1

>  <JCHEM_IUPAC>  (1) 
2-[(1S,2R,10S,11S,14R,15S)-14-hydroxy-2,15-dimethyl-5,17-dioxotetracyclo[8.7.0.0²,⁷.0¹¹,¹⁵]heptadec-6-en-14-yl]-2-oxoethyl acetate

>  <JCHEM_LOGP>  (1) 
2.1018060986666662

>  <JCHEM_MDDR_LIKE_RULE>  (1) 
0

>  <JCHEM_NUMBER_OF_RINGS>  (1) 
4

>  <JCHEM_PHYSIOLOGICAL_CHARGE>  (1) 
0

>  <JCHEM_PKA>  (1) 
15.40739560238396

>  <JCHEM_PKA_STRONGEST_ACIDIC>  (1) 
12.601158843129117

>  <JCHEM_PKA_STRONGEST_BASIC>  (1) 
-3.846796353544568

>  <JCHEM_POLAR_SURFACE_AREA>  (1) 
97.73999999999998

>  <JCHEM_REFRACTIVITY>  (1) 
105.62629999999999

>  <JCHEM_ROTATABLE_BOND_COUNT>  (1) 
4

>  <JCHEM_RULE_OF_FIVE>  (1) 
1

>  <JCHEM_TRADITIONAL_IUPAC>  (1) 
cortisone acetate

>  <JCHEM_VEBER_RULE>  (1) 
0

>  <MOLECULAR_WEIGHT>  (1) 
402.4807

>  <PRODUCTS>  (1) 
Cortisone Acetate; Cortisone Acetate Tab 25mg; Cortone Sus 50mg/ml; Cortone Tab 25mg; Cortone Tab 5mg

>  <SMILES>  (1) 
[H][C@@]12CC[C@](O)(C(=O)COC(C)=O)[C@@]1(C)CC(=O)[C@@]1([H])[C@@]2([H])CCC2=CC(=O)CC[C@]12C

$$$$
