
     RDKit          2D

 65 44  0  0  0  0  0  0  0  0999 V2000
    4.8290   -6.4384    0.0000 Si  0  0  0  0  0  0  0  0  0  0  0  0
    2.5240   -6.4384    0.0000 Si  0  0  0  0  0  0  0  0  0  0  0  0
    0.2190   -6.4384    0.0000 Si  0  0  0  0  0  0  0  0  0  0  0  0
   -2.0860   -6.4384    0.0000 Si  0  0  0  0  0  0  0  0  0  0  0  0
   -4.3911   -6.4384    0.0000 Al  0  0  0  0  0  0  0  0  0  0  0  0
   -6.6961   -6.4384    0.0000 Mg  0  0  0  0  0  0  0  0  0  0  0  0
    0.0000   -2.6243    0.0000 O   0  0  0  0  0  0  0  0  0  0  0  0
    0.0000    0.7027    0.0000 O   0  0  0  0  0  0  0  0  0  0  0  0
    0.0000    4.0296    0.0000 O   0  0  0  0  0  0  0  0  0  0  0  0
    0.0000    7.3566    0.0000 O   0  0  0  0  0  0  0  0  0  0  0  0
    5.9815   -5.7730    0.0000 O   0  0  0  0  0  0  0  0  0  0  0  0
    3.6765   -7.1038    0.0000 O   0  0  0  0  0  0  0  0  0  0  0  0
    3.1893   -5.2859    0.0000 O   0  0  0  0  0  0  0  0  0  0  0  0
    1.8585   -7.5909    0.0000 O   0  0  0  0  0  0  0  0  0  0  0  0
    1.3715   -5.7730    0.0000 O   0  0  0  0  0  0  0  0  0  0  0  0
   -0.9335   -7.1038    0.0000 O   0  0  0  0  0  0  0  0  0  0  0  0
   -0.4463   -5.2859    0.0000 O   0  0  0  0  0  0  0  0  0  0  0  0
    0.8844   -7.5909    0.0000 O   0  0  0  0  0  0  0  0  0  0  0  0
   -3.2384   -5.7730    0.0000 O   0  0  0  0  0  0  0  0  0  0  0  0
   -5.5436   -5.7730    0.0000 O   0  0  0  0  0  0  0  0  0  0  0  0
   -4.3911   -7.7692    0.0000 O   0  0  0  0  0  0  0  0  0  0  0  0
    0.0000    0.0000    0.0000 H   0  0  0  0  0  0  0  0  0  0  0  0
    0.0000    0.0000    0.0000 H   0  0  0  0  0  0  0  0  0  0  0  0
    0.0000    0.0000    0.0000 H   0  0  0  0  0  0  0  0  0  0  0  0
    0.0000    0.0000    0.0000 H   0  0  0  0  0  0  0  0  0  0  0  0
    0.0000    0.0000    0.0000 H   0  0  0  0  0  0  0  0  0  0  0  0
    0.0000    0.0000    0.0000 H   0  0  0  0  0  0  0  0  0  0  0  0
    0.0000    0.0000    0.0000 H   0  0  0  0  0  0  0  0  0  0  0  0
    0.0000    0.0000    0.0000 H   0  0  0  0  0  0  0  0  0  0  0  0
    0.0000    0.0000    0.0000 H   0  0  0  0  0  0  0  0  0  0  0  0
    0.0000    0.0000    0.0000 H   0  0  0  0  0  0  0  0  0  0  0  0
    0.0000    0.0000    0.0000 H   0  0  0  0  0  0  0  0  0  0  0  0
    0.0000    0.0000    0.0000 H   0  0  0  0  0  0  0  0  0  0  0  0
    0.0000    0.0000    0.0000 H   0  0  0  0  0  0  0  0  0  0  0  0
    0.0000    0.0000    0.0000 H   0  0  0  0  0  0  0  0  0  0  0  0
    0.0000    0.0000    0.0000 H   0  0  0  0  0  0  0  0  0  0  0  0
    0.0000    0.0000    0.0000 H   0  0  0  0  0  0  0  0  0  0  0  0
    0.0000    0.0000    0.0000 H   0  0  0  0  0  0  0  0  0  0  0  0
    0.0000    0.0000    0.0000 H   0  0  0  0  0  0  0  0  0  0  0  0
    0.0000    0.0000    0.0000 H   0  0  0  0  0  0  0  0  0  0  0  0
    0.0000    0.0000    0.0000 H   0  0  0  0  0  0  0  0  0  0  0  0
    0.0000    0.0000    0.0000 H   0  0  0  0  0  0  0  0  0  0  0  0
    0.0000    0.0000    0.0000 H   0  0  0  0  0  0  0  0  0  0  0  0
    0.0000    0.0000    0.0000 H   0  0  0  0  0  0  0  0  0  0  0  0
    0.0000    0.0000    0.0000 H   0  0  0  0  0  0  0  0  0  0  0  0
    0.0000    0.0000    0.0000 H   0  0  0  0  0  0  0  0  0  0  0  0
    0.0000    0.0000    0.0000 H   0  0  0  0  0  0  0  0  0  0  0  0
    0.0000    0.0000    0.0000 H   0  0  0  0  0  0  0  0  0  0  0  0
    0.0000    0.0000    0.0000 H   0  0  0  0  0  0  0  0  0  0  0  0
    0.0000    0.0000    0.0000 H   0  0  0  0  0  0  0  0  0  0  0  0
    0.0000    0.0000    0.0000 H   0  0  0  0  0  0  0  0  0  0  0  0
    0.0000    0.0000    0.0000 H   0  0  0  0  0  0  0  0  0  0  0  0
    0.0000    0.0000    0.0000 H   0  0  0  0  0  0  0  0  0  0  0  0
    0.0000    0.0000    0.0000 H   0  0  0  0  0  0  0  0  0  0  0  0
    0.0000    0.0000    0.0000 H   0  0  0  0  0  0  0  0  0  0  0  0
    0.0000    0.0000    0.0000 H   0  0  0  0  0  0  0  0  0  0  0  0
    0.0000    0.0000    0.0000 H   0  0  0  0  0  0  0  0  0  0  0  0
    0.0000    0.0000    0.0000 H   0  0  0  0  0  0  0  0  0  0  0  0
    0.0000    0.0000    0.0000 H   0  0  0  0  0  0  0  0  0  0  0  0
    0.0000    0.0000    0.0000 H   0  0  0  0  0  0  0  0  0  0  0  0
    0.0000    0.0000    0.0000 H   0  0  0  0  0  0  0  0  0  0  0  0
    0.0000    0.0000    0.0000 H   0  0  0  0  0  0  0  0  0  0  0  0
    0.0000    0.0000    0.0000 H   0  0  0  0  0  0  0  0  0  0  0  0
    0.0000    0.0000    0.0000 H   0  0  0  0  0  0  0  0  0  0  0  0
    0.0000    0.0000    0.0000 H   0  0  0  0  0  0  0  0  0  0  0  0
  1 22  1  0
  1 23  1  0
  1 24  1  0
  1 25  1  0
  1 26  1  0
  1 27  1  0
  1 28  1  0
  1 29  1  0
  2 30  1  0
  2 31  1  0
  2 32  1  0
  2 33  1  0
  2 34  1  0
  2 35  1  0
  2 36  1  0
  2 37  1  0
  3 38  1  0
  3 39  1  0
  3 40  1  0
  3 41  1  0
  3 42  1  0
  3 43  1  0
  3 44  1  0
  3 45  1  0
  4 46  1  0
  4 47  1  0
  4 48  1  0
  4 49  1  0
  4 50  1  0
  4 51  1  0
  4 52  1  0
  4 53  1  0
  5 54  1  0
  5 55  1  0
  5 56  1  0
  7 57  1  0
  7 58  1  0
  8 59  1  0
  8 60  1  0
  9 61  1  0
  9 62  1  0
 10 63  1  0
 10 64  1  0
 11 65  1  0
M  CHG  8   1   4   2   4   3   4   4   4   5   3   6   2  11  -1  12  -2
M  CHG  8  13  -2  14  -2  15  -2  16  -2  17  -2  18  -2  19  -2  20  -2
M  CHG  1  21  -2
M  END
>  <DATABASE_ID>  (1) 
DB01574

>  <DATABASE_NAME>  (1) 
drugbank

>  <DRUGBANK_ID>  (1) 
DB01574

>  <DRUG_GROUPS>  (1) 
approved; vet_approved

>  <EXACT_MASS>  (1) 
411.8684309

>  <FORMULA>  (1) 
AlH9MgO15Si4

>  <GENERIC_NAME>  (1) 
Attapulgite

>  <INCHI_IDENTIFIER>  (1) 
InChI=1S/Al.Mg.5H2O.10O.4Si/h;;5*1H2;;;;;;;;;;;;;;/q+3;+2;;;;;;10*-2;4*+4/p-1

>  <INCHI_KEY>  (1) 
IXWIAFSBWGYQOE-UHFFFAOYSA-M

>  <JCHEM_ACCEPTOR_COUNT>  (1) 
1

>  <JCHEM_ATOM_COUNT>  (1) 
30

>  <JCHEM_AVERAGE_POLARIZABILITY>  (1) 
1.5082203897359623

>  <JCHEM_BIOAVAILABILITY>  (1) 
1

>  <JCHEM_DONOR_COUNT>  (1) 
1

>  <JCHEM_FORMAL_CHARGE>  (1) 
0

>  <JCHEM_GHOSE_FILTER>  (1) 
0

>  <JCHEM_IUPAC>  (1) 
tetrasilicon(4+) ion aluminium(3+) ion magnesium(2+) ion tetrahydrate hydroxide decaoxidandiide

>  <JCHEM_LOGP>  (1) 
-0.6519999999999999

>  <JCHEM_MDDR_LIKE_RULE>  (1) 
0

>  <JCHEM_NUMBER_OF_RINGS>  (1) 
0

>  <JCHEM_PHYSIOLOGICAL_CHARGE>  (1) 
0

>  <JCHEM_PKA_STRONGEST_ACIDIC>  (1) 
15.7

>  <JCHEM_PKA_STRONGEST_BASIC>  (1) 
-1.7999999999999998

>  <JCHEM_POLAR_SURFACE_AREA>  (1) 
25.3

>  <JCHEM_REFRACTIVITY>  (1) 
3.7

>  <JCHEM_ROTATABLE_BOND_COUNT>  (1) 
0

>  <JCHEM_RULE_OF_FIVE>  (1) 
1

>  <JCHEM_TRADITIONAL_IUPAC>  (1) 
tetrasilicon(4+) ion aluminium(3+) ion magnesium(2+) ion tetrahydrate hydroxide decaoxidandiide

>  <JCHEM_VEBER_RULE>  (1) 
1

>  <MOLECULAR_WEIGHT>  (1) 
412.684

>  <PRODUCTS>  (1) 
Children's Kaopectate Sus 600mg/15ml; Diban Cap; Donnagel-PG Cap; Extra Strength Kaopectate Tablets 750mg; Kaopectate Chewable Tab 300mg; Kaopectate Chewable Tablets 300mg; Kaopectate Extra Strength Sus; Kaopectate Extra Strength Tab 750mg; Kaopectate Liq 600mg/15ml; Kaopectate Tablet - 600mg; Kaopectate Tablets 600mg

>  <SMILES>  (1) 
[O--].[O--].[O--].[O--].[O--].[O--].[O--].[O--].[O--].[O--].[Mg++].[Al+3].[Si+4].[Si+4].[Si+4].[Si+4].[O-][H].[H]O[H].[H]O[H].[H]O[H].[H]O[H]

>  <SYNONYMS>  (1) 
Activated attapulgite; Aluminium magnesium silicate (attapulgite); Attapulgite (activated); Attapulgite, activated; Attapulgite,activated; Attapulgus clay

$$$$
