1623
     RDKit          2D

 59 62  0  0  0  0  0  0  0  0999 V2000
    6.7619   -0.9970    0.0000 S   0  0  0  0  0  0  0  0  0  0  0  0
    3.8495   -2.6670    0.0000 S   0  0  0  0  0  0  0  0  0  0  0  0
    6.3466   -0.2841    0.0000 O   0  0  0  0  0  0  0  0  0  0  0  0
    7.1771   -1.7099    0.0000 O   0  0  0  0  0  0  0  0  0  0  0  0
    5.2784    1.4580    0.0000 N   0  0  0  0  0  0  0  0  0  0  0  0
    6.7073    2.2830    0.0000 N   0  0  0  0  0  0  0  0  0  0  0  0
    7.4747   -0.5818    0.0000 N   0  0  0  0  0  0  0  0  0  0  0  0
    5.9929    1.0455    0.0000 C   0  0  0  0  0  0  0  0  0  0  0  0
    5.2784    2.2830    0.0000 C   0  0  0  0  0  0  0  0  0  0  0  0
    6.7073    1.4580    0.0000 C   0  0  0  0  0  0  0  0  0  0  0  0
    5.9929    2.6955    0.0000 C   0  0  0  0  0  0  0  0  0  0  0  0
    4.5640    1.0455    0.0000 C   0  0  0  0  0  0  0  0  0  0  0  0
    4.5640    0.2205    0.0000 C   0  0  0  0  0  0  0  0  0  0  0  0
    7.4219    2.6955    0.0000 C   0  0  0  0  0  0  0  0  0  0  0  0
    3.8495   -0.1920    0.0000 C   0  0  0  0  0  0  0  0  0  0  0  0
    3.8495   -1.0170    0.0000 C   0  0  0  0  0  0  0  0  0  0  0  0
    4.5640   -1.4295    0.0000 C   0  0  0  0  0  0  0  0  0  0  0  0
    3.1350   -1.4295    0.0000 C   0  0  0  0  0  0  0  0  0  0  0  0
    4.5640   -2.2545    0.0000 C   0  0  0  0  0  0  0  0  0  0  0  0
    5.3015   -0.9884    0.0000 C   0  0  0  0  0  0  0  0  0  0  0  0
    3.1350   -2.2545    0.0000 C   0  0  0  0  0  0  0  0  0  0  0  0
    6.0490   -1.4123    0.0000 C   0  0  0  0  0  0  0  0  0  0  0  0
    5.3015   -2.6955    0.0000 C   0  0  0  0  0  0  0  0  0  0  0  0
    2.3975   -0.9884    0.0000 C   0  0  0  0  0  0  0  0  0  0  0  0
    6.0490   -2.2716    0.0000 C   0  0  0  0  0  0  0  0  0  0  0  0
    2.3975   -2.6955    0.0000 C   0  0  0  0  0  0  0  0  0  0  0  0
    1.6500   -1.4123    0.0000 C   0  0  0  0  0  0  0  0  0  0  0  0
    1.6500   -2.2716    0.0000 C   0  0  0  0  0  0  0  0  0  0  0  0
    8.1908   -0.9915    0.0000 C   0  0  0  0  0  0  0  0  0  0  0  0
    7.4715    0.2432    0.0000 C   0  0  0  0  0  0  0  0  0  0  0  0
    0.0000    0.0000    0.0000 H   0  0  0  0  0  0  0  0  0  0  0  0
    0.0000    0.0000    0.0000 H   0  0  0  0  0  0  0  0  0  0  0  0
    0.0000    0.0000    0.0000 H   0  0  0  0  0  0  0  0  0  0  0  0
    0.0000    0.0000    0.0000 H   0  0  0  0  0  0  0  0  0  0  0  0
    0.0000    0.0000    0.0000 H   0  0  0  0  0  0  0  0  0  0  0  0
    0.0000    0.0000    0.0000 H   0  0  0  0  0  0  0  0  0  0  0  0
    0.0000    0.0000    0.0000 H   0  0  0  0  0  0  0  0  0  0  0  0
    0.0000    0.0000    0.0000 H   0  0  0  0  0  0  0  0  0  0  0  0
    0.0000    0.0000    0.0000 H   0  0  0  0  0  0  0  0  0  0  0  0
    0.0000    0.0000    0.0000 H   0  0  0  0  0  0  0  0  0  0  0  0
    0.0000    0.0000    0.0000 H   0  0  0  0  0  0  0  0  0  0  0  0
    0.0000    0.0000    0.0000 H   0  0  0  0  0  0  0  0  0  0  0  0
    0.0000    0.0000    0.0000 H   0  0  0  0  0  0  0  0  0  0  0  0
    0.0000    0.0000    0.0000 H   0  0  0  0  0  0  0  0  0  0  0  0
    0.0000    0.0000    0.0000 H   0  0  0  0  0  0  0  0  0  0  0  0
    0.0000    0.0000    0.0000 H   0  0  0  0  0  0  0  0  0  0  0  0
    0.0000    0.0000    0.0000 H   0  0  0  0  0  0  0  0  0  0  0  0
    0.0000    0.0000    0.0000 H   0  0  0  0  0  0  0  0  0  0  0  0
    0.0000    0.0000    0.0000 H   0  0  0  0  0  0  0  0  0  0  0  0
    0.0000    0.0000    0.0000 H   0  0  0  0  0  0  0  0  0  0  0  0
    0.0000    0.0000    0.0000 H   0  0  0  0  0  0  0  0  0  0  0  0
    0.0000    0.0000    0.0000 H   0  0  0  0  0  0  0  0  0  0  0  0
    0.0000    0.0000    0.0000 H   0  0  0  0  0  0  0  0  0  0  0  0
    0.0000    0.0000    0.0000 H   0  0  0  0  0  0  0  0  0  0  0  0
    0.0000    0.0000    0.0000 H   0  0  0  0  0  0  0  0  0  0  0  0
    0.0000    0.0000    0.0000 H   0  0  0  0  0  0  0  0  0  0  0  0
    0.0000    0.0000    0.0000 H   0  0  0  0  0  0  0  0  0  0  0  0
    0.0000    0.0000    0.0000 H   0  0  0  0  0  0  0  0  0  0  0  0
    0.0000    0.0000    0.0000 H   0  0  0  0  0  0  0  0  0  0  0  0
  1  3  2  0
  1  4  2  0
  1  7  1  0
  1 22  1  0
  2 19  1  0
  2 21  1  0
  5  8  1  0
  5  9  1  0
  5 12  1  0
  6 10  1  0
  6 11  1  0
  6 14  1  0
  7 29  1  0
  7 30  1  0
  8 10  1  0
  9 11  1  0
 12 13  1  0
 13 15  1  0
 15 16  2  0
 16 17  1  0
 16 18  1  0
 17 19  2  0
 17 20  1  0
 18 21  2  0
 18 24  1  0
 19 23  1  0
 20 22  2  0
 21 26  1  0
 22 25  1  0
 23 25  2  0
 24 27  2  0
 26 28  2  0
 27 28  1  0
  8 31  1  0
  8 32  1  0
  9 33  1  0
  9 34  1  0
 10 35  1  0
 10 36  1  0
 11 37  1  0
 11 38  1  0
 12 39  1  0
 12 40  1  0
 13 41  1  0
 13 42  1  0
 14 43  1  0
 14 44  1  0
 14 45  1  0
 15 46  1  0
 20 47  1  0
 23 48  1  0
 24 49  1  0
 25 50  1  0
 26 51  1  0
 27 52  1  0
 28 53  1  0
 29 54  1  0
 29 55  1  0
 29 56  1  0
 30 57  1  0
 30 58  1  0
 30 59  1  0
M  END
>  <ALOGPS_LOGP>  (1) 
4.01

>  <ALOGPS_LOGS>  (1) 
-4.50

>  <ALOGPS_SOLUBILITY>  (1) 
1.39e-02 g/l

>  <DATABASE_ID>  (1) 
DB01623

>  <DATABASE_NAME>  (1) 
drugbank

>  <DRUGBANK_ID>  (1) 
DB01623

>  <DRUG_GROUPS>  (1) 
approved

>  <EXACT_MASS>  (1) 
443.170118567

>  <FORMULA>  (1) 
C23H29N3O2S2

>  <GENERIC_NAME>  (1) 
Thiothixene

>  <INCHI_IDENTIFIER>  (1) 
InChI=1S/C23H29N3O2S2/c1-24(2)30(27,28)18-10-11-23-21(17-18)19(20-7-4-5-9-22(20)29-23)8-6-12-26-15-13-25(3)14-16-26/h4-5,7-11,17H,6,12-16H2,1-3H3/b19-8-

>  <INCHI_KEY>  (1) 
GFBKORZTTCHDGY-UWVJOHFNSA-N

>  <JCHEM_ACCEPTOR_COUNT>  (1) 
4

>  <JCHEM_AVERAGE_POLARIZABILITY>  (1) 
50.346633294768345

>  <JCHEM_BIOAVAILABILITY>  (1) 
1

>  <JCHEM_DONOR_COUNT>  (1) 
0

>  <JCHEM_FORMAL_CHARGE>  (1) 
0

>  <JCHEM_GHOSE_FILTER>  (1) 
0

>  <JCHEM_IUPAC>  (1) 
(9Z)-N,N-dimethyl-9-[3-(4-methylpiperazin-1-yl)propylidene]-9H-thioxanthene-2-sulfonamide

>  <JCHEM_LOGP>  (1) 
3.3624241666666657

>  <JCHEM_MDDR_LIKE_RULE>  (1) 
0

>  <JCHEM_NUMBER_OF_RINGS>  (1) 
4

>  <JCHEM_PHYSIOLOGICAL_CHARGE>  (1) 
1

>  <JCHEM_PKA_STRONGEST_BASIC>  (1) 
8.555898492519159

>  <JCHEM_POLAR_SURFACE_AREA>  (1) 
43.86000000000001

>  <JCHEM_REFRACTIVITY>  (1) 
137.8545

>  <JCHEM_ROTATABLE_BOND_COUNT>  (1) 
4

>  <JCHEM_RULE_OF_FIVE>  (1) 
1

>  <JCHEM_TRADITIONAL_IUPAC>  (1) 
thiothixene

>  <JCHEM_VEBER_RULE>  (1) 
0

>  <MOLECULAR_WEIGHT>  (1) 
443.625

>  <PRODUCTS>  (1) 
Navane Cap 2mg; Navane Cap 5mg; Navane Capsules 10mg; Thiothixene

>  <SALTS>  (1) 
Thiothixene hydrochloride

>  <SMILES>  (1) 
CN(C)S(=O)(=O)C1=CC2=C(SC3=CC=CC=C3\C2=C\CCN2CCN(C)CC2)C=C1

>  <SYNONYMS>  (1) 
cis-thiothixene; Tiotixene; Tiotixeno; Tiotixenum

$$$$
