1551
     RDKit          2D

 45 49  0  0  1  0  0  0  0  0999 V2000
    1.9356   -0.1190    0.0000 O   0  0  0  0  0  0  0  0  0  0  0  0
    1.7349   -2.2486    0.0000 O   0  0  0  0  0  0  0  0  0  0  0  0
    1.7349    1.9190    0.0000 O   0  0  0  0  0  0  0  0  0  0  0  0
    5.3440   -0.9899    0.0000 N   0  0  0  0  0  0  0  0  0  0  0  0
    3.2006   -0.5773    0.0000 C   0  0  0  0  0  0  0  0  0  0  0  0
    3.9151   -0.9899    0.0000 C   0  0  0  0  0  0  0  0  0  0  0  0
    2.4861   -0.9899    0.0000 C   0  0  0  0  0  0  0  0  0  0  0  0
    4.6296   -0.5773    0.0000 C   0  0  0  0  0  0  0  0  0  0  0  0
    3.6773    0.0277    0.0000 C   0  0  0  0  0  0  0  0  0  0  0  0
    3.2006    0.2477    0.0000 C   0  0  0  0  0  0  0  0  0  0  0  0
    3.9151   -1.8149    0.0000 C   0  0  0  0  0  0  0  0  0  0  0  0
    2.4861   -1.8149    0.0000 C   0  0  0  0  0  0  0  0  0  0  0  0
    4.6296    0.2477    0.0000 C   0  0  0  0  0  0  0  0  0  0  0  0
    3.2006   -2.2274    0.0000 C   0  0  0  0  0  0  0  0  0  0  0  0
    4.8506    0.0277    0.0000 C   0  0  0  0  0  0  0  0  0  0  0  0
    3.9151    0.6602    0.0000 C   0  0  0  0  0  0  0  0  0  0  0  0
    2.4861    0.6602    0.0000 C   0  0  0  0  0  0  0  0  0  0  0  0
    5.9350   -1.6249    0.0000 C   0  0  0  0  0  0  0  0  0  0  0  0
    3.9151    1.4852    0.0000 C   0  0  0  0  0  0  0  0  0  0  0  0
    2.4861    1.4852    0.0000 C   0  0  0  0  0  0  0  0  0  0  0  0
    3.2006    1.8977    0.0000 C   0  0  0  0  0  0  0  0  0  0  0  0
    1.7349    2.7864    0.0000 C   0  0  0  0  0  0  0  0  0  0  0  0
    0.0000    0.0000    0.0000 H   0  0  0  0  0  0  0  0  0  0  0  0
    0.0000    0.0000    0.0000 H   0  0  0  0  0  0  0  0  0  0  0  0
    0.0000    0.0000    0.0000 H   0  0  0  0  0  0  0  0  0  0  0  0
    0.0000    0.0000    0.0000 H   0  0  0  0  0  0  0  0  0  0  0  0
    0.0000    0.0000    0.0000 H   0  0  0  0  0  0  0  0  0  0  0  0
    0.0000    0.0000    0.0000 H   0  0  0  0  0  0  0  0  0  0  0  0
    0.0000    0.0000    0.0000 H   0  0  0  0  0  0  0  0  0  0  0  0
    0.0000    0.0000    0.0000 H   0  0  0  0  0  0  0  0  0  0  0  0
    0.0000    0.0000    0.0000 H   0  0  0  0  0  0  0  0  0  0  0  0
    0.0000    0.0000    0.0000 H   0  0  0  0  0  0  0  0  0  0  0  0
    0.0000    0.0000    0.0000 H   0  0  0  0  0  0  0  0  0  0  0  0
    0.0000    0.0000    0.0000 H   0  0  0  0  0  0  0  0  0  0  0  0
    0.0000    0.0000    0.0000 H   0  0  0  0  0  0  0  0  0  0  0  0
    0.0000    0.0000    0.0000 H   0  0  0  0  0  0  0  0  0  0  0  0
    0.0000    0.0000    0.0000 H   0  0  0  0  0  0  0  0  0  0  0  0
    0.0000    0.0000    0.0000 H   0  0  0  0  0  0  0  0  0  0  0  0
    0.0000    0.0000    0.0000 H   0  0  0  0  0  0  0  0  0  0  0  0
    0.0000    0.0000    0.0000 H   0  0  0  0  0  0  0  0  0  0  0  0
    0.0000    0.0000    0.0000 H   0  0  0  0  0  0  0  0  0  0  0  0
    0.0000    0.0000    0.0000 H   0  0  0  0  0  0  0  0  0  0  0  0
    0.0000    0.0000    0.0000 H   0  0  0  0  0  0  0  0  0  0  0  0
    0.0000    0.0000    0.0000 H   0  0  0  0  0  0  0  0  0  0  0  0
    0.0000    0.0000    0.0000 H   0  0  0  0  0  0  0  0  0  0  0  0
  1  7  1  0
  1 17  1  0
 12  2  1  6
  3 20  1  0
  3 22  1  0
  4  8  1  0
  4 15  1  0
  4 18  1  0
  5  6  1  0
  5  7  1  0
  5  9  1  1
  5 10  1  0
  6  8  1  0
  6 11  1  0
  7 12  1  0
  8 13  1  0
  9 15  1  0
 10 16  2  0
 10 17  1  0
 11 14  1  0
 12 14  1  0
 13 16  1  0
 16 19  1  0
 17 20  2  0
 19 21  2  0
 20 21  1  0
  2 23  1  0
  6 24  1  1
  7 25  1  1
  8 26  1  6
  9 27  1  0
  9 28  1  0
 11 29  1  0
 11 30  1  0
 12 31  1  0
 13 32  1  0
 13 33  1  0
 14 34  1  0
 14 35  1  0
 15 36  1  0
 15 37  1  0
 18 38  1  0
 18 39  1  0
 18 40  1  0
 19 41  1  0
 21 42  1  0
 22 43  1  0
 22 44  1  0
 22 45  1  0
M  END
>  <ALOGPS_LOGP>  (1) 
1.58

>  <ALOGPS_LOGS>  (1) 
-2.10

>  <ALOGPS_SOLUBILITY>  (1) 
2.38e+00 g/l

>  <DATABASE_ID>  (1) 
DB01551

>  <DATABASE_NAME>  (1) 
drugbank

>  <DRUGBANK_ID>  (1) 
DB01551

>  <DRUG_GROUPS>  (1) 
approved; illicit

>  <EXACT_MASS>  (1) 
301.167793607

>  <FORMULA>  (1) 
C18H23NO3

>  <GENERIC_NAME>  (1) 
Dihydrocodeine

>  <INCHI_IDENTIFIER>  (1) 
InChI=1S/C18H23NO3/c1-19-8-7-18-11-4-5-13(20)17(18)22-16-14(21-2)6-3-10(15(16)18)9-12(11)19/h3,6,11-13,17,20H,4-5,7-9H2,1-2H3/t11-,12+,13-,17-,18-/m0/s1

>  <INCHI_KEY>  (1) 
RBOXVHNMENFORY-DNJOTXNNSA-N

>  <INTERNATIONAL_BRANDS>  (1) 
Codidol; Contugesic; Dehace; DF-118 Forte; Dicogesic; Hydrocodin; Remedacen

>  <JCHEM_ACCEPTOR_COUNT>  (1) 
4

>  <JCHEM_AVERAGE_POLARIZABILITY>  (1) 
32.82498332801217

>  <JCHEM_BIOAVAILABILITY>  (1) 
1

>  <JCHEM_DONOR_COUNT>  (1) 
1

>  <JCHEM_FORMAL_CHARGE>  (1) 
0

>  <JCHEM_GHOSE_FILTER>  (1) 
1

>  <JCHEM_IUPAC>  (1) 
(1S,5R,13R,14S,17R)-10-methoxy-4-methyl-12-oxa-4-azapentacyclo[9.6.1.0¹,¹³.0⁵,¹⁷.0⁷,¹⁸]octadeca-7(18),8,10-trien-14-ol

>  <JCHEM_LOGP>  (1) 
1.5489654796666665

>  <JCHEM_MDDR_LIKE_RULE>  (1) 
0

>  <JCHEM_NUMBER_OF_RINGS>  (1) 
5

>  <JCHEM_PHYSIOLOGICAL_CHARGE>  (1) 
1

>  <JCHEM_PKA_STRONGEST_ACIDIC>  (1) 
14.15155112831567

>  <JCHEM_PKA_STRONGEST_BASIC>  (1) 
9.331082819397679

>  <JCHEM_POLAR_SURFACE_AREA>  (1) 
41.93

>  <JCHEM_REFRACTIVITY>  (1) 
83.6421

>  <JCHEM_ROTATABLE_BOND_COUNT>  (1) 
1

>  <JCHEM_RULE_OF_FIVE>  (1) 
1

>  <JCHEM_TRADITIONAL_IUPAC>  (1) 
dihydrocodeine

>  <JCHEM_VEBER_RULE>  (1) 
0

>  <MOLECULAR_WEIGHT>  (1) 
301.3801

>  <PRODUCTS>  (1) 
Acetaminophen, Caffeine and Dihydrocodeine Bitartrate; Acetaminophen, Caffeine, Dihydrocodeine Bitartrate; Aspirin, Caffeine, and Dihydrocodeine Bitartrate; Centussin Dhc; Dihydrocodeine Bitartrate, Acetaminophen and Caffeine; J-cof Dhc; J-max Dhc; Poly Hist Dhc; Poly-tussin EX; Synalgos; Trezix

>  <SALTS>  (1) 
Dihydrocodeine bitartrate; Dihydrocodeine hydrobromide; Dihydrocodeine hydrochloride; Dihydrocodeine hydroiodide; Dihydrocodeine methyliodide; Dihydrocodeine phosphate; Dihydrocodeine sulfate; Dihydrocodeine tartrate

>  <SMILES>  (1) 
[H][C@@]12OC3=C(OC)C=CC4=C3[C@@]11CCN(C)[C@]([H])(C4)[C@]1([H])CC[C@@H]2O

>  <SYNONYMS>  (1) 
DHC

$$$$
