1393
     RDKit          2D

 45 46  0  0  0  0  0  0  0  0999 V2000
    2.3645   -5.0780    0.0000 Cl  0  0  0  0  0  0  0  0  0  0  0  0
    3.7935    3.1722    0.0000 O   0  0  0  0  0  0  0  0  0  0  0  0
    5.2224    4.8222    0.0000 O   0  0  0  0  0  0  0  0  0  0  0  0
    5.9370    3.5847    0.0000 O   0  0  0  0  0  0  0  0  0  0  0  0
    1.6500   -1.3654    0.0000 O   0  0  0  0  0  0  0  0  0  0  0  0
    3.0791   -1.3654    0.0000 N   0  0  0  0  0  0  0  0  0  0  0  0
    4.5080    3.5847    0.0000 C   0  0  0  0  0  0  0  0  0  0  0  0
    3.7935   -0.1279    0.0000 C   0  0  0  0  0  0  0  0  0  0  0  0
    3.7935    0.6971    0.0000 C   0  0  0  0  0  0  0  0  0  0  0  0
    3.0791   -0.5404    0.0000 C   0  0  0  0  0  0  0  0  0  0  0  0
    3.7935    2.3472    0.0000 C   0  0  0  0  0  0  0  0  0  0  0  0
    4.0955    4.2992    0.0000 C   0  0  0  0  0  0  0  0  0  0  0  0
    4.9205    2.8702    0.0000 C   0  0  0  0  0  0  0  0  0  0  0  0
    3.0791    1.1096    0.0000 C   0  0  0  0  0  0  0  0  0  0  0  0
    4.5080    1.1096    0.0000 C   0  0  0  0  0  0  0  0  0  0  0  0
    3.0791    1.9347    0.0000 C   0  0  0  0  0  0  0  0  0  0  0  0
    4.5080    1.9347    0.0000 C   0  0  0  0  0  0  0  0  0  0  0  0
    5.2224    3.9972    0.0000 C   0  0  0  0  0  0  0  0  0  0  0  0
    2.3645   -1.7779    0.0000 C   0  0  0  0  0  0  0  0  0  0  0  0
    2.3645   -2.6029    0.0000 C   0  0  0  0  0  0  0  0  0  0  0  0
    3.0791   -3.0154    0.0000 C   0  0  0  0  0  0  0  0  0  0  0  0
    1.6500   -3.0154    0.0000 C   0  0  0  0  0  0  0  0  0  0  0  0
    3.0791   -3.8405    0.0000 C   0  0  0  0  0  0  0  0  0  0  0  0
    1.6500   -3.8405    0.0000 C   0  0  0  0  0  0  0  0  0  0  0  0
    2.3645   -4.2530    0.0000 C   0  0  0  0  0  0  0  0  0  0  0  0
    0.0000    0.0000    0.0000 H   0  0  0  0  0  0  0  0  0  0  0  0
    0.0000    0.0000    0.0000 H   0  0  0  0  0  0  0  0  0  0  0  0
    0.0000    0.0000    0.0000 H   0  0  0  0  0  0  0  0  0  0  0  0
    0.0000    0.0000    0.0000 H   0  0  0  0  0  0  0  0  0  0  0  0
    0.0000    0.0000    0.0000 H   0  0  0  0  0  0  0  0  0  0  0  0
    0.0000    0.0000    0.0000 H   0  0  0  0  0  0  0  0  0  0  0  0
    0.0000    0.0000    0.0000 H   0  0  0  0  0  0  0  0  0  0  0  0
    0.0000    0.0000    0.0000 H   0  0  0  0  0  0  0  0  0  0  0  0
    0.0000    0.0000    0.0000 H   0  0  0  0  0  0  0  0  0  0  0  0
    0.0000    0.0000    0.0000 H   0  0  0  0  0  0  0  0  0  0  0  0
    0.0000    0.0000    0.0000 H   0  0  0  0  0  0  0  0  0  0  0  0
    0.0000    0.0000    0.0000 H   0  0  0  0  0  0  0  0  0  0  0  0
    0.0000    0.0000    0.0000 H   0  0  0  0  0  0  0  0  0  0  0  0
    0.0000    0.0000    0.0000 H   0  0  0  0  0  0  0  0  0  0  0  0
    0.0000    0.0000    0.0000 H   0  0  0  0  0  0  0  0  0  0  0  0
    0.0000    0.0000    0.0000 H   0  0  0  0  0  0  0  0  0  0  0  0
    0.0000    0.0000    0.0000 H   0  0  0  0  0  0  0  0  0  0  0  0
    0.0000    0.0000    0.0000 H   0  0  0  0  0  0  0  0  0  0  0  0
    0.0000    0.0000    0.0000 H   0  0  0  0  0  0  0  0  0  0  0  0
    0.0000    0.0000    0.0000 H   0  0  0  0  0  0  0  0  0  0  0  0
  1 25  1  0
  2  7  1  0
  2 11  1  0
  3 18  1  0
  4 18  2  0
  5 19  2  0
  6 10  1  0
  6 19  1  0
  7 12  1  0
  7 13  1  0
  7 18  1  0
  8  9  1  0
  8 10  1  0
  9 14  2  0
  9 15  1  0
 11 16  2  0
 11 17  1  0
 14 16  1  0
 15 17  2  0
 19 20  1  0
 20 21  2  0
 20 22  1  0
 21 23  1  0
 22 24  2  0
 23 25  2  0
 24 25  1  0
  3 26  1  0
  6 27  1  0
  8 28  1  0
  8 29  1  0
 10 30  1  0
 10 31  1  0
 12 32  1  0
 12 33  1  0
 12 34  1  0
 13 35  1  0
 13 36  1  0
 13 37  1  0
 14 38  1  0
 15 39  1  0
 16 40  1  0
 17 41  1  0
 21 42  1  0
 22 43  1  0
 23 44  1  0
 24 45  1  0
M  END
>  <ALOGPS_LOGP>  (1) 
3.97

>  <ALOGPS_LOGS>  (1) 
-5.37

>  <ALOGPS_SOLUBILITY>  (1) 
1.55e-03 g/l

>  <DATABASE_ID>  (1) 
DB01393

>  <DATABASE_NAME>  (1) 
drugbank

>  <DRUGBANK_ID>  (1) 
DB01393

>  <DRUG_GROUPS>  (1) 
approved

>  <EXACT_MASS>  (1) 
361.10808584

>  <FORMULA>  (1) 
C19H20ClNO4

>  <GENERIC_NAME>  (1) 
Bezafibrate

>  <INCHI_IDENTIFIER>  (1) 
InChI=1S/C19H20ClNO4/c1-19(2,18(23)24)25-16-9-3-13(4-10-16)11-12-21-17(22)14-5-7-15(20)8-6-14/h3-10H,11-12H2,1-2H3,(H,21,22)(H,23,24)

>  <INCHI_KEY>  (1) 
IIBYAHWJQTYFKB-UHFFFAOYSA-N

>  <INTERNATIONAL_BRANDS>  (1) 
Befizal; Bezalip

>  <JCHEM_ACCEPTOR_COUNT>  (1) 
4

>  <JCHEM_AVERAGE_POLARIZABILITY>  (1) 
37.53029638155452

>  <JCHEM_BIOAVAILABILITY>  (1) 
1

>  <JCHEM_DONOR_COUNT>  (1) 
2

>  <JCHEM_FORMAL_CHARGE>  (1) 
0

>  <JCHEM_GHOSE_FILTER>  (1) 
1

>  <JCHEM_IUPAC>  (1) 
2-(4-{2-[(4-chlorophenyl)formamido]ethyl}phenoxy)-2-methylpropanoic acid

>  <JCHEM_LOGP>  (1) 
3.986583345666667

>  <JCHEM_MDDR_LIKE_RULE>  (1) 
0

>  <JCHEM_NUMBER_OF_RINGS>  (1) 
2

>  <JCHEM_PHYSIOLOGICAL_CHARGE>  (1) 
-1

>  <JCHEM_PKA>  (1) 
14.745638150722503

>  <JCHEM_PKA_STRONGEST_ACIDIC>  (1) 
3.82883068613538

>  <JCHEM_PKA_STRONGEST_BASIC>  (1) 
-0.8434560009342841

>  <JCHEM_POLAR_SURFACE_AREA>  (1) 
75.63

>  <JCHEM_REFRACTIVITY>  (1) 
95.96050000000001

>  <JCHEM_ROTATABLE_BOND_COUNT>  (1) 
7

>  <JCHEM_RULE_OF_FIVE>  (1) 
1

>  <JCHEM_TRADITIONAL_IUPAC>  (1) 
bezafibrate

>  <JCHEM_VEBER_RULE>  (1) 
0

>  <MOLECULAR_WEIGHT>  (1) 
361.819

>  <PRODUCTS>  (1) 
Act-bezafibrate SR; Bezalip SR; Bezalip Tab 200mg; Jamp-bezafibrate SR; PMS-bezafibrate

>  <SECONDARY_ACCESSION_NUMBERS>  (1) 
DB08380

>  <SMILES>  (1) 
CC(C)(OC1=CC=C(CCNC(=O)C2=CC=C(Cl)C=C2)C=C1)C(O)=O

>  <SYNONYMS>  (1) 
Bezafibrato; Bezafibratum

$$$$
