1607
     RDKit          2D

 41 43  0  0  1  0  0  0  0  0999 V2000
    7.3584    0.3193    0.0000 S   0  0  0  0  0  0  0  0  0  0  0  0
    1.8619    0.0884    0.0000 S   0  0  0  0  0  0  0  0  0  0  0  0
    5.1597   -1.3486    0.0000 O   0  0  0  0  0  0  0  0  0  0  0  0
    7.0613   -2.4133    0.0000 O   0  0  0  0  0  0  0  0  0  0  0  0
    8.4203   -1.9718    0.0000 O   0  0  0  0  0  0  0  0  0  0  0  0
    4.1472   -0.3560    0.0000 O   0  0  0  0  0  0  0  0  0  0  0  0
    3.4132    2.4060    0.0000 O   0  0  0  0  0  0  0  0  0  0  0  0
    4.7928    2.0333    0.0000 O   0  0  0  0  0  0  0  0  0  0  0  0
    6.5737   -0.7607    0.0000 N   0  0  0  0  0  0  0  0  0  0  0  0
    5.1597    0.6523    0.0000 N   0  0  0  0  0  0  0  0  0  0  0  0
    6.5737    0.0644    0.0000 C   0  0  0  0  0  0  0  0  0  0  0  0
    7.8433   -0.3482    0.0000 C   0  0  0  0  0  0  0  0  0  0  0  0
    7.3584   -1.0156    0.0000 C   0  0  0  0  0  0  0  0  0  0  0  0
    5.7419    0.0677    0.0000 C   0  0  0  0  0  0  0  0  0  0  0  0
    5.7419   -0.7641    0.0000 C   0  0  0  0  0  0  0  0  0  0  0  0
    8.5107   -0.8331    0.0000 C   0  0  0  0  0  0  0  0  0  0  0  0
    8.5107    0.1368    0.0000 C   0  0  0  0  0  0  0  0  0  0  0  0
    7.6133   -1.8002    0.0000 C   0  0  0  0  0  0  0  0  0  0  0  0
    4.3624    0.4404    0.0000 C   0  0  0  0  0  0  0  0  0  0  0  0
    3.7803    1.0250    0.0000 C   0  0  0  0  0  0  0  0  0  0  0  0
    2.9829    0.8131    0.0000 C   0  0  0  0  0  0  0  0  0  0  0  0
    3.9954    1.8214    0.0000 C   0  0  0  0  0  0  0  0  0  0  0  0
    2.3428    1.3336    0.0000 C   0  0  0  0  0  0  0  0  0  0  0  0
    2.6857    0.0435    0.0000 C   0  0  0  0  0  0  0  0  0  0  0  0
    1.6500    0.8857    0.0000 C   0  0  0  0  0  0  0  0  0  0  0  0
    0.0000    0.0000    0.0000 H   0  0  0  0  0  0  0  0  0  0  0  0
    0.0000    0.0000    0.0000 H   0  0  0  0  0  0  0  0  0  0  0  0
    0.0000    0.0000    0.0000 H   0  0  0  0  0  0  0  0  0  0  0  0
    0.0000    0.0000    0.0000 H   0  0  0  0  0  0  0  0  0  0  0  0
    0.0000    0.0000    0.0000 H   0  0  0  0  0  0  0  0  0  0  0  0
    0.0000    0.0000    0.0000 H   0  0  0  0  0  0  0  0  0  0  0  0
    0.0000    0.0000    0.0000 H   0  0  0  0  0  0  0  0  0  0  0  0
    0.0000    0.0000    0.0000 H   0  0  0  0  0  0  0  0  0  0  0  0
    0.0000    0.0000    0.0000 H   0  0  0  0  0  0  0  0  0  0  0  0
    0.0000    0.0000    0.0000 H   0  0  0  0  0  0  0  0  0  0  0  0
    0.0000    0.0000    0.0000 H   0  0  0  0  0  0  0  0  0  0  0  0
    0.0000    0.0000    0.0000 H   0  0  0  0  0  0  0  0  0  0  0  0
    0.0000    0.0000    0.0000 H   0  0  0  0  0  0  0  0  0  0  0  0
    0.0000    0.0000    0.0000 H   0  0  0  0  0  0  0  0  0  0  0  0
    0.0000    0.0000    0.0000 H   0  0  0  0  0  0  0  0  0  0  0  0
    0.0000    0.0000    0.0000 H   0  0  0  0  0  0  0  0  0  0  0  0
  1 11  1  0
  1 12  1  0
  2 24  1  0
  2 25  1  0
  3 15  2  0
  4 18  1  0
  5 18  2  0
  6 19  2  0
  7 22  1  0
  8 22  2  0
  9 11  1  0
  9 13  1  0
  9 15  1  0
 14 10  1  1
 10 19  1  0
 11 14  1  0
 12 13  1  0
 12 16  1  0
 12 17  1  0
 13 18  1  6
 14 15  1  0
 20 19  1  1
 20 21  1  0
 20 22  1  0
 21 23  1  0
 21 24  2  0
 23 25  2  0
  4 26  1  0
  7 27  1  0
 10 28  1  0
 11 29  1  6
 13 30  1  0
 14 31  1  0
 16 32  1  0
 16 33  1  0
 16 34  1  0
 17 35  1  0
 17 36  1  0
 17 37  1  0
 20 38  1  0
 23 39  1  0
 24 40  1  0
 25 41  1  0
M  END
>  <ALOGPS_LOGP>  (1) 
0.99

>  <ALOGPS_LOGS>  (1) 
-3.73

>  <ALOGPS_SOLUBILITY>  (1) 
7.16e-02 g/l

>  <DATABASE_ID>  (1) 
DB01607

>  <DATABASE_NAME>  (1) 
drugbank

>  <DRUGBANK_ID>  (1) 
DB01607

>  <DRUG_GROUPS>  (1) 
approved; investigational; vet_approved

>  <EXACT_MASS>  (1) 
384.044977634

>  <FORMULA>  (1) 
C15H16N2O6S2

>  <GENERIC_NAME>  (1) 
Ticarcillin

>  <INCHI_IDENTIFIER>  (1) 
InChI=1S/C15H16N2O6S2/c1-15(2)9(14(22)23)17-11(19)8(12(17)25-15)16-10(18)7(13(20)21)6-3-4-24-5-6/h3-5,7-9,12H,1-2H3,(H,16,18)(H,20,21)(H,22,23)/t7-,8-,9+,12-/m1/s1

>  <INCHI_KEY>  (1) 
OHKOGUYZJXTSFX-KZFFXBSXSA-N

>  <JCHEM_ACCEPTOR_COUNT>  (1) 
6

>  <JCHEM_AVERAGE_POLARIZABILITY>  (1) 
36.14269831493392

>  <JCHEM_BIOAVAILABILITY>  (1) 
1

>  <JCHEM_DONOR_COUNT>  (1) 
3

>  <JCHEM_FORMAL_CHARGE>  (1) 
0

>  <JCHEM_GHOSE_FILTER>  (1) 
1

>  <JCHEM_IUPAC>  (1) 
(2S,5R,6R)-6-[(2R)-2-carboxy-2-(thiophen-3-yl)acetamido]-3,3-dimethyl-7-oxo-4-thia-1-azabicyclo[3.2.0]heptane-2-carboxylic acid

>  <JCHEM_LOGP>  (1) 
0.5957987833333339

>  <JCHEM_MDDR_LIKE_RULE>  (1) 
0

>  <JCHEM_NUMBER_OF_RINGS>  (1) 
3

>  <JCHEM_PHYSIOLOGICAL_CHARGE>  (1) 
-2

>  <JCHEM_PKA>  (1) 
4.122551213409252

>  <JCHEM_PKA_STRONGEST_ACIDIC>  (1) 
3.0920584971992358

>  <JCHEM_PKA_STRONGEST_BASIC>  (1) 
-6.31815645554628

>  <JCHEM_POLAR_SURFACE_AREA>  (1) 
124.01

>  <JCHEM_REFRACTIVITY>  (1) 
87.92530000000001

>  <JCHEM_ROTATABLE_BOND_COUNT>  (1) 
5

>  <JCHEM_RULE_OF_FIVE>  (1) 
1

>  <JCHEM_TRADITIONAL_IUPAC>  (1) 
ticarcillin

>  <JCHEM_VEBER_RULE>  (1) 
0

>  <MOLECULAR_WEIGHT>  (1) 
384.427

>  <PRODUCTS>  (1) 
Ticar Inj Pws 1gm/vial; Ticar Inj Pws 3gm/vial; Timentin

>  <SALTS>  (1) 
Ticarcillin disodium

>  <SMILES>  (1) 
[H][C@]12SC(C)(C)[C@@H](N1C(=O)[C@H]2NC(=O)[C@H](C(O)=O)C1=CSC=C1)C(O)=O

>  <SYNONYMS>  (1) 
Ticarcilina; Ticarcilline; Ticarcillinum

$$$$
