 
     RDKit          2D

 97102  0  0  1  0  0  0  0  0999 V2000
   16.1818  -10.7652    0.0000 C   0  0  0  0  0  0  0  0  0  0  0  0
   16.2136  -11.5865    0.0000 C   0  0  0  0  0  0  0  0  0  0  0  0
   16.9005  -10.3615    0.0000 C   0  0  0  0  0  0  0  0  0  0  0  0
   15.4773  -10.3439    0.0000 C   0  0  0  0  0  0  0  0  0  0  0  0
   16.1996   -9.9792    0.0000 C   0  0  0  0  0  0  0  0  0  0  0  0
   15.4631  -11.9938    0.0000 C   0  0  0  0  0  0  0  0  0  0  0  0
   17.5980  -11.5618    0.0000 C   0  0  0  0  0  0  0  0  0  0  0  0
   17.6087  -10.7828    0.0000 C   0  0  0  0  0  0  0  0  0  0  0  0
   16.9077   -9.3562    0.0000 O   0  0  0  0  0  0  0  0  0  0  0  0
   14.7585  -10.7546    0.0000 C   0  0  0  0  0  0  0  0  0  0  0  0
   14.7514  -11.5760    0.0000 C   0  0  0  0  0  0  0  0  0  0  0  0
   15.4631  -12.8186    0.0000 C   0  0  0  0  0  0  0  0  0  0  0  0
   18.3274  -10.3757    0.0000 N   0  0  0  0  0  0  0  0  0  0  0  0
   16.1961   -8.9314    0.0000 C   0  0  0  0  0  0  0  0  0  0  0  0
   14.0327  -11.9831    0.0000 C   0  0  0  0  0  0  0  0  0  0  0  0
   14.7443  -13.2293    0.0000 C   0  0  0  0  0  0  0  0  0  0  0  0
   19.0355  -10.8006    0.0000 C   0  0  0  0  0  0  0  0  0  0  0  0
   18.3345   -9.5543    0.0000 C   0  0  0  0  0  0  0  0  0  0  0  0
   18.3309  -11.3565    0.0000 C   0  0  0  0  0  0  0  0  0  0  0  0
   15.4739   -9.3385    0.0000 C   0  0  0  0  0  0  0  0  0  0  0  0
   16.2067   -8.1064    0.0000 O   0  0  0  0  0  0  0  0  0  0  0  0
   14.0292  -12.8151    0.0000 C   0  0  0  0  0  0  0  0  0  0  0  0
   13.3176  -11.5724    0.0000 C   0  0  0  0  0  0  0  0  0  0  0  0
   14.0258  -11.1900    0.0000 C   0  0  0  0  0  0  0  0  0  0  0  0
   19.7541  -10.3970    0.0000 C   0  0  0  0  0  0  0  0  0  0  0  0
   19.0532   -9.1471    0.0000 C   0  0  0  0  0  0  0  0  0  0  0  0
   13.3176  -13.2259    0.0000 C   0  0  0  0  0  0  0  0  0  0  0  0
   12.6060  -11.9831    0.0000 C   0  0  0  0  0  0  0  0  0  0  0  0
   19.7648   -9.5720    0.0000 C   0  0  0  0  0  0  0  0  0  0  0  0
   12.6060  -12.8151    0.0000 C   0  0  0  0  0  0  0  0  0  0  0  0
   11.8022  -11.4484    0.0000 N   0  0  0  0  0  0  0  0  0  0  0  0
   11.8873  -13.2259    0.0000 O   0  0  0  0  0  0  0  0  0  0  0  0
   11.8058  -10.6271    0.0000 C   0  0  0  0  0  0  0  0  0  0  0  0
   11.0906  -11.8628    0.0000 C   0  0  0  0  0  0  0  0  0  0  0  0
   11.8873  -14.0507    0.0000 C   0  0  0  0  0  0  0  0  0  0  0  0
   11.0906  -10.2129    0.0000 C   0  0  0  0  0  0  0  0  0  0  0  0
   10.3755  -11.4521    0.0000 C   0  0  0  0  0  0  0  0  0  0  0  0
   11.1720  -14.4649    0.0000 C   0  0  0  0  0  0  0  0  0  0  0  0
   12.6060  -14.4649    0.0000 O   0  0  0  0  0  0  0  0  0  0  0  0
   10.3790  -10.6271    0.0000 C   0  0  0  0  0  0  0  0  0  0  0  0
    0.0000    0.0000    0.0000 H   0  0  0  0  0  0  0  0  0  0  0  0
    0.0000    0.0000    0.0000 H   0  0  0  0  0  0  0  0  0  0  0  0
    0.0000    0.0000    0.0000 H   0  0  0  0  0  0  0  0  0  0  0  0
    0.0000    0.0000    0.0000 H   0  0  0  0  0  0  0  0  0  0  0  0
    0.0000    0.0000    0.0000 H   0  0  0  0  0  0  0  0  0  0  0  0
    0.0000    0.0000    0.0000 H   0  0  0  0  0  0  0  0  0  0  0  0
    0.0000    0.0000    0.0000 H   0  0  0  0  0  0  0  0  0  0  0  0
    0.0000    0.0000    0.0000 H   0  0  0  0  0  0  0  0  0  0  0  0
    0.0000    0.0000    0.0000 H   0  0  0  0  0  0  0  0  0  0  0  0
    0.0000    0.0000    0.0000 H   0  0  0  0  0  0  0  0  0  0  0  0
    0.0000    0.0000    0.0000 H   0  0  0  0  0  0  0  0  0  0  0  0
    0.0000    0.0000    0.0000 H   0  0  0  0  0  0  0  0  0  0  0  0
    0.0000    0.0000    0.0000 H   0  0  0  0  0  0  0  0  0  0  0  0
    0.0000    0.0000    0.0000 H   0  0  0  0  0  0  0  0  0  0  0  0
    0.0000    0.0000    0.0000 H   0  0  0  0  0  0  0  0  0  0  0  0
    0.0000    0.0000    0.0000 H   0  0  0  0  0  0  0  0  0  0  0  0
    0.0000    0.0000    0.0000 H   0  0  0  0  0  0  0  0  0  0  0  0
    0.0000    0.0000    0.0000 H   0  0  0  0  0  0  0  0  0  0  0  0
    0.0000    0.0000    0.0000 H   0  0  0  0  0  0  0  0  0  0  0  0
    0.0000    0.0000    0.0000 H   0  0  0  0  0  0  0  0  0  0  0  0
    0.0000    0.0000    0.0000 H   0  0  0  0  0  0  0  0  0  0  0  0
    0.0000    0.0000    0.0000 H   0  0  0  0  0  0  0  0  0  0  0  0
    0.0000    0.0000    0.0000 H   0  0  0  0  0  0  0  0  0  0  0  0
    0.0000    0.0000    0.0000 H   0  0  0  0  0  0  0  0  0  0  0  0
    0.0000    0.0000    0.0000 H   0  0  0  0  0  0  0  0  0  0  0  0
    0.0000    0.0000    0.0000 H   0  0  0  0  0  0  0  0  0  0  0  0
    0.0000    0.0000    0.0000 H   0  0  0  0  0  0  0  0  0  0  0  0
    0.0000    0.0000    0.0000 H   0  0  0  0  0  0  0  0  0  0  0  0
    0.0000    0.0000    0.0000 H   0  0  0  0  0  0  0  0  0  0  0  0
    0.0000    0.0000    0.0000 H   0  0  0  0  0  0  0  0  0  0  0  0
    0.0000    0.0000    0.0000 H   0  0  0  0  0  0  0  0  0  0  0  0
    0.0000    0.0000    0.0000 H   0  0  0  0  0  0  0  0  0  0  0  0
    0.0000    0.0000    0.0000 H   0  0  0  0  0  0  0  0  0  0  0  0
    0.0000    0.0000    0.0000 H   0  0  0  0  0  0  0  0  0  0  0  0
    0.0000    0.0000    0.0000 H   0  0  0  0  0  0  0  0  0  0  0  0
    0.0000    0.0000    0.0000 H   0  0  0  0  0  0  0  0  0  0  0  0
    0.0000    0.0000    0.0000 H   0  0  0  0  0  0  0  0  0  0  0  0
    0.0000    0.0000    0.0000 H   0  0  0  0  0  0  0  0  0  0  0  0
    0.0000    0.0000    0.0000 H   0  0  0  0  0  0  0  0  0  0  0  0
    0.0000    0.0000    0.0000 H   0  0  0  0  0  0  0  0  0  0  0  0
    0.0000    0.0000    0.0000 H   0  0  0  0  0  0  0  0  0  0  0  0
    0.0000    0.0000    0.0000 H   0  0  0  0  0  0  0  0  0  0  0  0
    0.0000    0.0000    0.0000 H   0  0  0  0  0  0  0  0  0  0  0  0
    0.0000    0.0000    0.0000 H   0  0  0  0  0  0  0  0  0  0  0  0
    0.0000    0.0000    0.0000 H   0  0  0  0  0  0  0  0  0  0  0  0
    0.0000    0.0000    0.0000 H   0  0  0  0  0  0  0  0  0  0  0  0
    0.0000    0.0000    0.0000 H   0  0  0  0  0  0  0  0  0  0  0  0
    0.0000    0.0000    0.0000 H   0  0  0  0  0  0  0  0  0  0  0  0
    0.0000    0.0000    0.0000 H   0  0  0  0  0  0  0  0  0  0  0  0
    0.0000    0.0000    0.0000 H   0  0  0  0  0  0  0  0  0  0  0  0
    0.0000    0.0000    0.0000 H   0  0  0  0  0  0  0  0  0  0  0  0
    0.0000    0.0000    0.0000 H   0  0  0  0  0  0  0  0  0  0  0  0
    0.0000    0.0000    0.0000 H   0  0  0  0  0  0  0  0  0  0  0  0
    0.0000    0.0000    0.0000 H   0  0  0  0  0  0  0  0  0  0  0  0
    0.0000    0.0000    0.0000 H   0  0  0  0  0  0  0  0  0  0  0  0
    0.0000    0.0000    0.0000 H   0  0  0  0  0  0  0  0  0  0  0  0
    0.0000    0.0000    0.0000 H   0  0  0  0  0  0  0  0  0  0  0  0
  1  2  1  0
  1  3  1  0
  1  4  1  0
  1  5  1  1
  2  6  1  0
  2  7  1  0
  3  8  1  0
  3  9  1  1
  4 10  1  0
  6 11  1  0
  6 12  1  0
  8 13  1  1
  9 14  1  0
 11 15  1  0
 12 16  1  0
 13 17  1  0
 13 18  1  0
 13 19  1  0
 14 20  1  0
 14 21  2  0
 15 22  1  0
 15 23  1  0
 15 24  1  1
 17 25  1  0
 18 26  1  0
 22 27  1  0
 23 28  1  0
 25 29  1  0
 27 30  1  0
 28 31  1  1
 30 32  1  6
 31 33  1  0
 31 34  1  0
 32 35  1  0
 33 36  1  0
 34 37  1  0
 35 38  1  0
 35 39  2  0
 36 40  1  0
  7  8  1  0
 10 11  1  0
 16 22  1  0
 26 29  1  0
 28 30  1  0
 37 40  1  0
  2 41  1  6
  3 42  1  0
  4 43  1  0
  4 44  1  0
  5 45  1  0
  5 46  1  0
  5 47  1  0
  6 48  1  1
  7 49  1  0
  7 50  1  0
  8 51  1  0
 10 52  1  0
 10 53  1  0
 11 54  1  6
 12 55  1  0
 12 56  1  0
 16 57  1  0
 16 58  1  0
 17 59  1  0
 17 60  1  0
 18 61  1  0
 18 62  1  0
 19 63  1  0
 19 64  1  0
 19 65  1  0
 20 66  1  0
 20 67  1  0
 20 68  1  0
 22 69  1  6
 23 70  1  0
 23 71  1  0
 24 72  1  0
 24 73  1  0
 24 74  1  0
 25 75  1  0
 25 76  1  0
 26 77  1  0
 26 78  1  0
 27 79  1  0
 27 80  1  0
 28 81  1  0
 29 82  1  0
 29 83  1  0
 30 84  1  0
 33 85  1  0
 33 86  1  0
 34 87  1  0
 34 88  1  0
 36 89  1  0
 36 90  1  0
 37 91  1  0
 37 92  1  0
 38 93  1  0
 38 94  1  0
 38 95  1  0
 40 96  1  0
 40 97  1  0
M  CHG  1  13   1
M  END
>  <ALOGPS_LOGP>  (1) 
2.07

>  <ALOGPS_LOGS>  (1) 
-7.50

>  <ALOGPS_SOLUBILITY>  (1) 
1.86e-05 g/l

>  <DATABASE_ID>  (1) 
DB01339

>  <DATABASE_NAME>  (1) 
drugbank

>  <DRUGBANK_ID>  (1) 
DB01339

>  <DRUG_GROUPS>  (1) 
approved

>  <EXACT_MASS>  (1) 
557.431833322

>  <FORMULA>  (1) 
C34H57N2O4

>  <GENERIC_NAME>  (1) 
Vecuronium

>  <INCHI_IDENTIFIER>  (1) 
InChI=1S/C34H57N2O4/c1-23(37)39-31-20-25-12-13-26-27(34(25,4)22-29(31)35-16-8-6-9-17-35)14-15-33(3)28(26)21-30(32(33)40-24(2)38)36(5)18-10-7-11-19-36/h25-32H,6-22H2,1-5H3/q+1/t25-,26+,27-,28-,29-,30-,31-,32-,33-,34-/m0/s1

>  <INCHI_KEY>  (1) 
BGSZAXLLHYERSY-XQIGCQGXSA-N

>  <JCHEM_ACCEPTOR_COUNT>  (1) 
3

>  <JCHEM_AVERAGE_POLARIZABILITY>  (1) 
66.84521549153514

>  <JCHEM_BIOAVAILABILITY>  (1) 
1

>  <JCHEM_DONOR_COUNT>  (1) 
0

>  <JCHEM_FORMAL_CHARGE>  (1) 
1

>  <JCHEM_GHOSE_FILTER>  (1) 
0

>  <JCHEM_IUPAC>  (1) 
1-[(1S,2S,4S,5S,7S,10R,11S,13S,14R,15S)-5,14-bis(acetyloxy)-2,15-dimethyl-4-(piperidin-1-yl)tetracyclo[8.7.0.0²,⁷.0¹¹,¹⁵]heptadecan-13-yl]-1-methylpiperidin-1-ium

>  <JCHEM_LOGP>  (1) 
0.8920891531949218

>  <JCHEM_MDDR_LIKE_RULE>  (1) 
1

>  <JCHEM_NUMBER_OF_RINGS>  (1) 
6

>  <JCHEM_PHYSIOLOGICAL_CHARGE>  (1) 
2

>  <JCHEM_PKA_STRONGEST_BASIC>  (1) 
9.648388180869917

>  <JCHEM_POLAR_SURFACE_AREA>  (1) 
55.839999999999996

>  <JCHEM_REFRACTIVITY>  (1) 
169.30839999999992

>  <JCHEM_ROTATABLE_BOND_COUNT>  (1) 
6

>  <JCHEM_RULE_OF_FIVE>  (1) 
0

>  <JCHEM_TRADITIONAL_IUPAC>  (1) 
vecuronium

>  <JCHEM_VEBER_RULE>  (1) 
0

>  <MOLECULAR_WEIGHT>  (1) 
557.8274

>  <PRODUCTS>  (1) 
Norcuron Inj 10mg/vial; Vecuronium; Vecuronium Bromide; Vecuronium Bromide for Injection; Vecuronium bromide

>  <SALTS>  (1) 
Vecuronium bromide

>  <SMILES>  (1) 
[H][C@@]12C[C@@H]([C@H](OC(C)=O)[C@@]1(C)CC[C@@]1([H])[C@@]2([H])CC[C@@]2([H])C[C@H](OC(C)=O)[C@H](C[C@]12C)N1CCCCC1)[N+]1(C)CCCCC1

$$$$
