1023
     RDKit          2D

 44 45  0  0  1  0  0  0  0  0999 V2000
    6.7495    1.2240    0.0000 Cl  0  0  0  0  0  0  0  0  0  0  0  0
    6.6515    2.3183    0.0000 Cl  0  0  0  0  0  0  0  0  0  0  0  0
    3.0791   -0.5693    0.0000 O   0  0  0  0  0  0  0  0  0  0  0  0
    7.3659   -0.5693    0.0000 O   0  0  0  0  0  0  0  0  0  0  0  0
    3.7935    0.6683    0.0000 O   0  0  0  0  0  0  0  0  0  0  0  0
    7.1818    0.4752    0.0000 O   0  0  0  0  0  0  0  0  0  0  0  0
    5.2224   -1.8068    0.0000 N   0  0  0  0  0  0  0  0  0  0  0  0
    5.2224   -0.1568    0.0000 C   0  0  0  0  0  0  0  0  0  0  0  0
    4.5080   -0.5693    0.0000 C   0  0  0  0  0  0  0  0  0  0  0  0
    5.9370   -0.5693    0.0000 C   0  0  0  0  0  0  0  0  0  0  0  0
    5.2224    0.6683    0.0000 C   0  0  0  0  0  0  0  0  0  0  0  0
    4.5080   -1.3943    0.0000 C   0  0  0  0  0  0  0  0  0  0  0  0
    5.9370   -1.3943    0.0000 C   0  0  0  0  0  0  0  0  0  0  0  0
    3.7935   -0.1568    0.0000 C   0  0  0  0  0  0  0  0  0  0  0  0
    3.7935   -1.8068    0.0000 C   0  0  0  0  0  0  0  0  0  0  0  0
    6.6515   -1.8068    0.0000 C   0  0  0  0  0  0  0  0  0  0  0  0
    6.6515   -0.1568    0.0000 C   0  0  0  0  0  0  0  0  0  0  0  0
    5.9370    1.0808    0.0000 C   0  0  0  0  0  0  0  0  0  0  0  0
    4.5080    1.0808    0.0000 C   0  0  0  0  0  0  0  0  0  0  0  0
    5.9370    1.9058    0.0000 C   0  0  0  0  0  0  0  0  0  0  0  0
    4.5080    1.9058    0.0000 C   0  0  0  0  0  0  0  0  0  0  0  0
    5.2224    2.3183    0.0000 C   0  0  0  0  0  0  0  0  0  0  0  0
    2.3645   -0.1568    0.0000 C   0  0  0  0  0  0  0  0  0  0  0  0
    8.0804   -0.1568    0.0000 C   0  0  0  0  0  0  0  0  0  0  0  0
    1.6500   -0.5693    0.0000 C   0  0  0  0  0  0  0  0  0  0  0  0
    0.0000    0.0000    0.0000 H   0  0  0  0  0  0  0  0  0  0  0  0
    0.0000    0.0000    0.0000 H   0  0  0  0  0  0  0  0  0  0  0  0
    0.0000    0.0000    0.0000 H   0  0  0  0  0  0  0  0  0  0  0  0
    0.0000    0.0000    0.0000 H   0  0  0  0  0  0  0  0  0  0  0  0
    0.0000    0.0000    0.0000 H   0  0  0  0  0  0  0  0  0  0  0  0
    0.0000    0.0000    0.0000 H   0  0  0  0  0  0  0  0  0  0  0  0
    0.0000    0.0000    0.0000 H   0  0  0  0  0  0  0  0  0  0  0  0
    0.0000    0.0000    0.0000 H   0  0  0  0  0  0  0  0  0  0  0  0
    0.0000    0.0000    0.0000 H   0  0  0  0  0  0  0  0  0  0  0  0
    0.0000    0.0000    0.0000 H   0  0  0  0  0  0  0  0  0  0  0  0
    0.0000    0.0000    0.0000 H   0  0  0  0  0  0  0  0  0  0  0  0
    0.0000    0.0000    0.0000 H   0  0  0  0  0  0  0  0  0  0  0  0
    0.0000    0.0000    0.0000 H   0  0  0  0  0  0  0  0  0  0  0  0
    0.0000    0.0000    0.0000 H   0  0  0  0  0  0  0  0  0  0  0  0
    0.0000    0.0000    0.0000 H   0  0  0  0  0  0  0  0  0  0  0  0
    0.0000    0.0000    0.0000 H   0  0  0  0  0  0  0  0  0  0  0  0
    0.0000    0.0000    0.0000 H   0  0  0  0  0  0  0  0  0  0  0  0
    0.0000    0.0000    0.0000 H   0  0  0  0  0  0  0  0  0  0  0  0
    0.0000    0.0000    0.0000 H   0  0  0  0  0  0  0  0  0  0  0  0
  1 18  1  0
  2 20  1  0
  3 14  1  0
  3 23  1  0
  4 17  1  0
  4 24  1  0
  5 14  2  0
  6 17  2  0
  7 12  1  0
  7 13  1  0
  8  9  1  0
  8 10  1  0
  8 11  1  0
  9 12  2  0
  9 14  1  0
 10 13  2  0
 10 17  1  0
 11 18  2  0
 11 19  1  0
 12 15  1  0
 13 16  1  0
 18 20  1  0
 19 21  2  0
 20 22  2  0
 21 22  1  0
 23 25  1  0
  7 26  1  0
  8 27  1  0
 15 28  1  0
 15 29  1  0
 15 30  1  0
 16 31  1  0
 16 32  1  0
 16 33  1  0
 19 34  1  0
 21 35  1  0
 22 36  1  0
 23 37  1  0
 23 38  1  0
 24 39  1  0
 24 40  1  0
 24 41  1  0
 25 42  1  0
 25 43  1  0
 25 44  1  0
M  END
>  <ALOGPS_LOGP>  (1) 
4.36

>  <ALOGPS_LOGS>  (1) 
-4.73

>  <ALOGPS_SOLUBILITY>  (1) 
7.15e-03 g/l

>  <DATABASE_ID>  (1) 
DB01023

>  <DATABASE_NAME>  (1) 
drugbank

>  <DRUGBANK_ID>  (1) 
DB01023

>  <DRUG_GROUPS>  (1) 
approved; investigational

>  <EXACT_MASS>  (1) 
383.069113515

>  <FORMULA>  (1) 
C18H19Cl2NO4

>  <GENERIC_NAME>  (1) 
Felodipine

>  <INCHI_IDENTIFIER>  (1) 
InChI=1S/C18H19Cl2NO4/c1-5-25-18(23)14-10(3)21-9(2)13(17(22)24-4)15(14)11-7-6-8-12(19)16(11)20/h6-8,15,21H,5H2,1-4H3

>  <INCHI_KEY>  (1) 
RZTAMFZIAATZDJ-UHFFFAOYSA-N

>  <INTERNATIONAL_BRANDS>  (1) 
Felodur ER; Felogard; Penedil; Plendil Depottab; Plendil ER; Plendil Retard; Splendil

>  <JCHEM_ACCEPTOR_COUNT>  (1) 
3

>  <JCHEM_AVERAGE_POLARIZABILITY>  (1) 
38.0448456046199

>  <JCHEM_BIOAVAILABILITY>  (1) 
1

>  <JCHEM_DONOR_COUNT>  (1) 
1

>  <JCHEM_FORMAL_CHARGE>  (1) 
0

>  <JCHEM_GHOSE_FILTER>  (1) 
1

>  <JCHEM_IUPAC>  (1) 
3-ethyl 5-methyl 4-(2,3-dichlorophenyl)-2,6-dimethyl-1,4-dihydropyridine-3,5-dicarboxylate

>  <JCHEM_LOGP>  (1) 
3.4404073996666664

>  <JCHEM_MDDR_LIKE_RULE>  (1) 
0

>  <JCHEM_NUMBER_OF_RINGS>  (1) 
2

>  <JCHEM_PHYSIOLOGICAL_CHARGE>  (1) 
0

>  <JCHEM_PKA_STRONGEST_BASIC>  (1) 
5.38827273418849

>  <JCHEM_POLAR_SURFACE_AREA>  (1) 
64.63

>  <JCHEM_REFRACTIVITY>  (1) 
99.19820000000001

>  <JCHEM_ROTATABLE_BOND_COUNT>  (1) 
6

>  <JCHEM_RULE_OF_FIVE>  (1) 
1

>  <JCHEM_TRADITIONAL_IUPAC>  (1) 
felodipine

>  <JCHEM_VEBER_RULE>  (1) 
0

>  <MOLECULAR_WEIGHT>  (1) 
384.254

>  <PRODUCTS>  (1) 
Altace Plus Felodipine 2.5mg + 2.5mg; Altace Plus Felodipine 5mg + 5mg; Apo-felodipine; Felodipine; Felodipineextended-release Tablets; Plendil; Plendil 10 mg; Plendil 2.5 mg; Plendil 5 mg; Renedil; Renedil Srt 10mg; Renedil Srt 2.5mg; Renedil Srt 5mg; Sandoz Felodipine

>  <SECONDARY_ACCESSION_NUMBERS>  (1) 
APRD00374

>  <SMILES>  (1) 
CCOC(=O)C1=C(C)NC(C)=C(C1C1=C(Cl)C(Cl)=CC=C1)C(=O)OC

>  <SYNONYMS>  (1) 
Felodipina; Felodipine; Felodipinum

$$$$
