
     RDKit          2D

 83 84  0  0  0  0  0  0  0  0999 V2000
    5.7461   -5.7468    0.0000 C   0  0  0  0  0  0  0  0  0  0  0  0
    5.7461   -4.9218    0.0000 C   0  0  0  0  0  0  0  0  0  0  0  0
    7.1750   -4.9218    0.0000 C   0  0  0  0  0  0  0  0  0  0  0  0
    7.1750   -5.7468    0.0000 C   0  0  0  0  0  0  0  0  0  0  0  0
    6.4605   -4.5093    0.0000 C   0  0  0  0  0  0  0  0  0  0  0  0
    7.1750   -3.2718    0.0000 C   0  0  0  0  0  0  0  0  0  0  0  0
    5.7461   -3.2718    0.0000 C   0  0  0  0  0  0  0  0  0  0  0  0
    6.4605   -3.6842    0.0000 C   0  0  0  0  0  0  0  0  0  0  0  0
    6.4605   -2.8593    0.0000 C   0  0  0  0  0  0  0  0  0  0  0  0
    6.4605   -6.1592    0.0000 C   0  0  0  0  0  0  0  0  0  0  0  0
    7.8894   -6.1592    0.0000 S   0  0  0  0  0  0  0  0  0  0  0  0
    9.3184   -6.1592    0.0000 S   0  0  0  0  0  0  0  0  0  0  0  0
   10.0300   -5.7965    0.0000 C   0  0  0  0  0  0  0  0  0  0  0  0
   10.0300   -4.9715    0.0000 C   0  0  0  0  0  0  0  0  0  0  0  0
   11.4590   -4.9715    0.0000 C   0  0  0  0  0  0  0  0  0  0  0  0
   11.4590   -5.7965    0.0000 C   0  0  0  0  0  0  0  0  0  0  0  0
   10.7445   -4.5590    0.0000 C   0  0  0  0  0  0  0  0  0  0  0  0
   11.4590   -3.3215    0.0000 C   0  0  0  0  0  0  0  0  0  0  0  0
   10.0300   -3.3215    0.0000 C   0  0  0  0  0  0  0  0  0  0  0  0
   10.7445   -3.7340    0.0000 C   0  0  0  0  0  0  0  0  0  0  0  0
   10.7445   -2.9089    0.0000 C   0  0  0  0  0  0  0  0  0  0  0  0
   10.7445   -6.2089    0.0000 C   0  0  0  0  0  0  0  0  0  0  0  0
    8.6038   -5.7468    0.0000 C   0  0  0  0  0  0  0  0  0  0  0  0
   12.1735   -6.2089    0.0000 C   0  0  0  0  0  0  0  0  0  0  0  0
   12.8879   -5.7965    0.0000 C   0  0  0  0  0  0  0  0  0  0  0  0
   12.1735   -7.0340    0.0000 C   0  0  0  0  0  0  0  0  0  0  0  0
   13.0888   -6.6846    0.0000 C   0  0  0  0  0  0  0  0  0  0  0  0
    5.0316   -6.1592    0.0000 C   0  0  0  0  0  0  0  0  0  0  0  0
    5.0316   -6.9842    0.0000 C   0  0  0  0  0  0  0  0  0  0  0  0
    4.3171   -5.7467    0.0000 C   0  0  0  0  0  0  0  0  0  0  0  0
    4.1529   -6.7045    0.0000 C   0  0  0  0  0  0  0  0  0  0  0  0
    5.0316   -4.5093    0.0000 O   0  0  0  0  0  0  0  0  0  0  0  0
   12.1735   -4.5590    0.0000 O   0  0  0  0  0  0  0  0  0  0  0  0
    8.1912   -5.0324    0.0000 C   0  0  0  0  0  0  0  0  0  0  0  0
    9.0163   -5.0323    0.0000 C   0  0  0  0  0  0  0  0  0  0  0  0
    0.0000    0.0000    0.0000 H   0  0  0  0  0  0  0  0  0  0  0  0
    0.0000    0.0000    0.0000 H   0  0  0  0  0  0  0  0  0  0  0  0
    0.0000    0.0000    0.0000 H   0  0  0  0  0  0  0  0  0  0  0  0
    0.0000    0.0000    0.0000 H   0  0  0  0  0  0  0  0  0  0  0  0
    0.0000    0.0000    0.0000 H   0  0  0  0  0  0  0  0  0  0  0  0
    0.0000    0.0000    0.0000 H   0  0  0  0  0  0  0  0  0  0  0  0
    0.0000    0.0000    0.0000 H   0  0  0  0  0  0  0  0  0  0  0  0
    0.0000    0.0000    0.0000 H   0  0  0  0  0  0  0  0  0  0  0  0
    0.0000    0.0000    0.0000 H   0  0  0  0  0  0  0  0  0  0  0  0
    0.0000    0.0000    0.0000 H   0  0  0  0  0  0  0  0  0  0  0  0
    0.0000    0.0000    0.0000 H   0  0  0  0  0  0  0  0  0  0  0  0
    0.0000    0.0000    0.0000 H   0  0  0  0  0  0  0  0  0  0  0  0
    0.0000    0.0000    0.0000 H   0  0  0  0  0  0  0  0  0  0  0  0
    0.0000    0.0000    0.0000 H   0  0  0  0  0  0  0  0  0  0  0  0
    0.0000    0.0000    0.0000 H   0  0  0  0  0  0  0  0  0  0  0  0
    0.0000    0.0000    0.0000 H   0  0  0  0  0  0  0  0  0  0  0  0
    0.0000    0.0000    0.0000 H   0  0  0  0  0  0  0  0  0  0  0  0
    0.0000    0.0000    0.0000 H   0  0  0  0  0  0  0  0  0  0  0  0
    0.0000    0.0000    0.0000 H   0  0  0  0  0  0  0  0  0  0  0  0
    0.0000    0.0000    0.0000 H   0  0  0  0  0  0  0  0  0  0  0  0
    0.0000    0.0000    0.0000 H   0  0  0  0  0  0  0  0  0  0  0  0
    0.0000    0.0000    0.0000 H   0  0  0  0  0  0  0  0  0  0  0  0
    0.0000    0.0000    0.0000 H   0  0  0  0  0  0  0  0  0  0  0  0
    0.0000    0.0000    0.0000 H   0  0  0  0  0  0  0  0  0  0  0  0
    0.0000    0.0000    0.0000 H   0  0  0  0  0  0  0  0  0  0  0  0
    0.0000    0.0000    0.0000 H   0  0  0  0  0  0  0  0  0  0  0  0
    0.0000    0.0000    0.0000 H   0  0  0  0  0  0  0  0  0  0  0  0
    0.0000    0.0000    0.0000 H   0  0  0  0  0  0  0  0  0  0  0  0
    0.0000    0.0000    0.0000 H   0  0  0  0  0  0  0  0  0  0  0  0
    0.0000    0.0000    0.0000 H   0  0  0  0  0  0  0  0  0  0  0  0
    0.0000    0.0000    0.0000 H   0  0  0  0  0  0  0  0  0  0  0  0
    0.0000    0.0000    0.0000 H   0  0  0  0  0  0  0  0  0  0  0  0
    0.0000    0.0000    0.0000 H   0  0  0  0  0  0  0  0  0  0  0  0
    0.0000    0.0000    0.0000 H   0  0  0  0  0  0  0  0  0  0  0  0
    0.0000    0.0000    0.0000 H   0  0  0  0  0  0  0  0  0  0  0  0
    0.0000    0.0000    0.0000 H   0  0  0  0  0  0  0  0  0  0  0  0
    0.0000    0.0000    0.0000 H   0  0  0  0  0  0  0  0  0  0  0  0
    0.0000    0.0000    0.0000 H   0  0  0  0  0  0  0  0  0  0  0  0
    0.0000    0.0000    0.0000 H   0  0  0  0  0  0  0  0  0  0  0  0
    0.0000    0.0000    0.0000 H   0  0  0  0  0  0  0  0  0  0  0  0
    0.0000    0.0000    0.0000 H   0  0  0  0  0  0  0  0  0  0  0  0
    0.0000    0.0000    0.0000 H   0  0  0  0  0  0  0  0  0  0  0  0
    0.0000    0.0000    0.0000 H   0  0  0  0  0  0  0  0  0  0  0  0
    0.0000    0.0000    0.0000 H   0  0  0  0  0  0  0  0  0  0  0  0
    0.0000    0.0000    0.0000 H   0  0  0  0  0  0  0  0  0  0  0  0
    0.0000    0.0000    0.0000 H   0  0  0  0  0  0  0  0  0  0  0  0
    0.0000    0.0000    0.0000 H   0  0  0  0  0  0  0  0  0  0  0  0
    0.0000    0.0000    0.0000 H   0  0  0  0  0  0  0  0  0  0  0  0
 10  1  2  0
  1  2  1  0
  1 28  1  0
  2  5  2  0
  2 32  1  0
  5  3  1  0
  3  4  2  0
 10  4  1  0
  4 11  1  0
  5  8  1  0
  8  6  1  0
  8  7  1  0
  8  9  1  0
 11 23  1  0
 12 13  1  0
 23 12  1  0
 22 13  1  0
 13 14  2  0
 14 17  1  0
 17 15  2  0
 15 16  1  0
 15 33  1  0
 22 16  2  0
 16 24  1  0
 17 20  1  0
 20 18  1  0
 20 19  1  0
 20 21  1  0
 24 25  1  0
 24 26  1  0
 24 27  1  0
 28 29  1  0
 28 30  1  0
 28 31  1  0
 34 23  1  0
 35 23  1  0
  3 36  1  0
  6 37  1  0
  6 38  1  0
  6 39  1  0
  7 40  1  0
  7 41  1  0
  7 42  1  0
  9 43  1  0
  9 44  1  0
  9 45  1  0
 10 46  1  0
 14 47  1  0
 18 48  1  0
 18 49  1  0
 18 50  1  0
 19 51  1  0
 19 52  1  0
 19 53  1  0
 21 54  1  0
 21 55  1  0
 21 56  1  0
 22 57  1  0
 25 58  1  0
 25 59  1  0
 25 60  1  0
 26 61  1  0
 26 62  1  0
 26 63  1  0
 27 64  1  0
 27 65  1  0
 27 66  1  0
 29 67  1  0
 29 68  1  0
 29 69  1  0
 30 70  1  0
 30 71  1  0
 30 72  1  0
 31 73  1  0
 31 74  1  0
 31 75  1  0
 32 76  1  0
 33 77  1  0
 34 78  1  0
 34 79  1  0
 34 80  1  0
 35 81  1  0
 35 82  1  0
 35 83  1  0
M  END
>  <ALOGPS_LOGP>  (1) 
8.92

>  <ALOGPS_LOGS>  (1) 
-7.09

>  <ALOGPS_SOLUBILITY>  (1) 
4.18e-05 g/l

>  <DATABASE_ID>  (1) 
DB01599

>  <DATABASE_NAME>  (1) 
drugbank

>  <DRUGBANK_ID>  (1) 
DB01599

>  <DRUG_GROUPS>  (1) 
approved; investigational

>  <EXACT_MASS>  (1) 
516.30957216

>  <FORMULA>  (1) 
C31H48O2S2

>  <GENERIC_NAME>  (1) 
Probucol

>  <INCHI_IDENTIFIER>  (1) 
InChI=1S/C31H48O2S2/c1-27(2,3)21-15-19(16-22(25(21)32)28(4,5)6)34-31(13,14)35-20-17-23(29(7,8)9)26(33)24(18-20)30(10,11)12/h15-18,32-33H,1-14H3

>  <INCHI_KEY>  (1) 
FYPMFJGVHOHGLL-UHFFFAOYSA-N

>  <INTERNATIONAL_BRANDS>  (1) 
Lesterol; Lorelco; Lurselle; Serterol; Sinlestal; Superlipid

>  <JCHEM_ACCEPTOR_COUNT>  (1) 
2

>  <JCHEM_AVERAGE_POLARIZABILITY>  (1) 
62.347192486673634

>  <JCHEM_BIOAVAILABILITY>  (1) 
0

>  <JCHEM_DONOR_COUNT>  (1) 
2

>  <JCHEM_FORMAL_CHARGE>  (1) 
0

>  <JCHEM_GHOSE_FILTER>  (1) 
0

>  <JCHEM_IUPAC>  (1) 
2,6-di-tert-butyl-4-({2-[(3,5-di-tert-butyl-4-hydroxyphenyl)sulfanyl]propan-2-yl}sulfanyl)phenol

>  <JCHEM_LOGP>  (1) 
10.569524170333334

>  <JCHEM_MDDR_LIKE_RULE>  (1) 
0

>  <JCHEM_NUMBER_OF_RINGS>  (1) 
2

>  <JCHEM_PHYSIOLOGICAL_CHARGE>  (1) 
0

>  <JCHEM_PKA>  (1) 
10.892970349520102

>  <JCHEM_PKA_STRONGEST_ACIDIC>  (1) 
10.290910357703329

>  <JCHEM_PKA_STRONGEST_BASIC>  (1) 
-5.084481276417283

>  <JCHEM_POLAR_SURFACE_AREA>  (1) 
40.46

>  <JCHEM_REFRACTIVITY>  (1) 
159.25900000000004

>  <JCHEM_ROTATABLE_BOND_COUNT>  (1) 
8

>  <JCHEM_RULE_OF_FIVE>  (1) 
0

>  <JCHEM_TRADITIONAL_IUPAC>  (1) 
probucol

>  <JCHEM_VEBER_RULE>  (1) 
0

>  <MOLECULAR_WEIGHT>  (1) 
516.842

>  <PRODUCTS>  (1) 
Lorelco

>  <SMILES>  (1) 
CC(C)(SC1=CC(=C(O)C(=C1)C(C)(C)C)C(C)(C)C)SC1=CC(=C(O)C(=C1)C(C)(C)C)C(C)(C)C

>  <SYNONYMS>  (1) 
4,4'- (Isopropylidenedithio)bis(2,6-di-tert-butylphenol); Acetone bis(3,5-di-tert-butyl-4-hydroxyphenyl) mercaptole; Biphenabid; Bisbid; Bisphenabid; Probucol; Probucolum

$$$$
