
     RDKit          2D

138140  0  0  1  0  0  0  0  0999 V2000
   16.6412  -10.7168    0.0000 N   0  0  0  0  0  0  0  0  0  0  0  0
   15.9133  -10.2801    0.0000 C   0  0  0  0  0  0  0  0  0  0  0  0
   15.1369  -10.7168    0.0000 C   0  0  0  0  0  0  0  0  0  0  0  0
   14.4575  -10.2801    0.0000 N   0  0  0  0  0  0  0  0  0  0  0  0
   13.7296  -10.7168    0.0000 C   0  0  0  0  0  0  0  0  0  0  0  0
   13.0017  -10.2801    0.0000 C   0  0  0  0  0  0  0  0  0  0  0  0
   12.2738  -10.7168    0.0000 N   0  0  0  0  0  0  0  0  0  0  0  0
   11.5459  -10.2801    0.0000 C   0  0  0  0  0  0  0  0  0  0  0  0
   10.8180  -10.7168    0.0000 O   0  0  0  0  0  0  0  0  0  0  0  0
   15.9133   -9.4551    0.0000 O   0  0  0  0  0  0  0  0  0  0  0  0
   13.7296  -11.5418    0.0000 O   0  0  0  0  0  0  0  0  0  0  0  0
   13.0017   -9.4551    0.0000 C   0  0  0  0  0  0  0  0  0  0  0  0
   13.7296   -9.0184    0.0000 C   0  0  0  0  0  0  0  0  0  0  0  0
   14.4575   -9.4551    0.0000 C   0  0  0  0  0  0  0  0  0  0  0  0
   11.5459   -9.4551    0.0000 C   0  0  0  0  0  0  0  0  0  0  0  0
   12.2252   -8.9699    0.0000 C   0  0  0  0  0  0  0  0  0  0  0  0
   10.8665   -8.9699    0.0000 N   0  0  0  0  0  0  0  0  0  0  0  0
   11.9341   -8.1449    0.0000 C   0  0  0  0  0  0  0  0  0  0  0  0
   11.1091   -8.1449    0.0000 C   0  0  0  0  0  0  0  0  0  0  0  0
   10.1386   -9.3581    0.0000 C   0  0  0  0  0  0  0  0  0  0  0  0
    9.4107   -8.9699    0.0000 C   0  0  0  0  0  0  0  0  0  0  0  0
    8.6828   -9.3581    0.0000 N   0  0  0  0  0  0  0  0  0  0  0  0
    7.9549   -8.9699    0.0000 C   0  0  0  0  0  0  0  0  0  0  0  0
    7.2270   -9.3581    0.0000 C   0  0  0  0  0  0  0  0  0  0  0  0
    6.4991   -8.9699    0.0000 N   0  0  0  0  0  0  0  0  0  0  0  0
   10.1386  -10.1831    0.0000 O   0  0  0  0  0  0  0  0  0  0  0  0
    9.4107   -8.1449    0.0000 C   0  0  0  0  0  0  0  0  0  0  0  0
   10.1386   -7.7082    0.0000 S   0  0  0  0  0  0  0  0  0  0  0  0
   10.1386   -6.8347    0.0000 C   0  0  0  0  0  0  0  0  0  0  0  0
    7.9549   -8.1449    0.0000 O   0  0  0  0  0  0  0  0  0  0  0  0
    7.2270  -10.1831    0.0000 C   0  0  0  0  0  0  0  0  0  0  0  0
    6.4991  -10.6198    0.0000 C   0  0  0  0  0  0  0  0  0  0  0  0
    6.4991  -11.4933    0.0000 O   0  0  0  0  0  0  0  0  0  0  0  0
    5.7712  -10.2316    0.0000 N   0  0  0  0  0  0  0  0  0  0  0  0
    6.4991   -8.1449    0.0000 C   0  0  0  0  0  0  0  0  0  0  0  0
    5.7227   -7.7082    0.0000 C   0  0  0  0  0  0  0  0  0  0  0  0
    7.2270   -7.7082    0.0000 O   0  0  0  0  0  0  0  0  0  0  0  0
    5.0433   -8.1449    0.0000 C   0  0  0  0  0  0  0  0  0  0  0  0
    4.3154   -7.7082    0.0000 C   0  0  0  0  0  0  0  0  0  0  0  0
    3.5875   -8.1449    0.0000 C   0  0  0  0  0  0  0  0  0  0  0  0
    2.8596   -7.7082    0.0000 N   0  0  0  0  0  0  0  0  0  0  0  0
    3.5875   -8.9699    0.0000 O   0  0  0  0  0  0  0  0  0  0  0  0
    5.7227   -6.8832    0.0000 N   0  0  0  0  0  0  0  0  0  0  0  0
    5.0433   -5.6215    0.0000 C   0  0  0  0  0  0  0  0  0  0  0  0
    5.7227   -5.1848    0.0000 C   0  0  0  0  0  0  0  0  0  0  0  0
    6.4991   -5.6215    0.0000 C   0  0  0  0  0  0  0  0  0  0  0  0
    6.4991   -6.4464    0.0000 C   0  0  0  0  0  0  0  0  0  0  0  0
    4.3154   -5.1848    0.0000 C   0  0  0  0  0  0  0  0  0  0  0  0
    9.4107   -5.6215    0.0000 N   0  0  0  0  0  0  0  0  0  0  0  0
   10.1386   -5.1848    0.0000 C   0  0  0  0  0  0  0  0  0  0  0  0
   10.8665   -5.6215    0.0000 C   0  0  0  0  0  0  0  0  0  0  0  0
   10.8665   -6.4464    0.0000 C   0  0  0  0  0  0  0  0  0  0  0  0
    7.9549   -5.6215    0.0000 C   0  0  0  0  0  0  0  0  0  0  0  0
    7.9549   -6.4464    0.0000 O   0  0  0  0  0  0  0  0  0  0  0  0
    8.6828   -5.1848    0.0000 C   0  0  0  0  0  0  0  0  0  0  0  0
    7.2270   -5.1848    0.0000 N   0  0  0  0  0  0  0  0  0  0  0  0
    7.2270   -6.8347    0.0000 O   0  0  0  0  0  0  0  0  0  0  0  0
    8.6828   -4.3113    0.0000 C   0  0  0  0  0  0  0  0  0  0  0  0
    7.2270   -4.3113    0.0000 C   0  0  0  0  0  0  0  0  0  0  0  0
    7.9549   -3.9231    0.0000 C   0  0  0  0  0  0  0  0  0  0  0  0
    6.4991   -3.9231    0.0000 C   0  0  0  0  0  0  0  0  0  0  0  0
    6.4991   -3.0981    0.0000 C   0  0  0  0  0  0  0  0  0  0  0  0
    7.9549   -3.0981    0.0000 C   0  0  0  0  0  0  0  0  0  0  0  0
    7.2270   -2.6614    0.0000 C   0  0  0  0  0  0  0  0  0  0  0  0
   10.1386   -4.3113    0.0000 O   0  0  0  0  0  0  0  0  0  0  0  0
    5.7712   -2.6614    0.0000 O   0  0  0  0  0  0  0  0  0  0  0  0
   13.7296   -8.1934    0.0000 C   0  0  0  0  0  0  0  0  0  0  0  0
    5.7227   -4.3598    0.0000 C   0  0  0  0  0  0  0  0  0  0  0  0
    5.7227   -1.8364    0.0000 C   0  0  0  0  0  0  0  0  0  0  0  0
    0.0000    0.0000    0.0000 H   0  0  0  0  0  0  0  0  0  0  0  0
    0.0000    0.0000    0.0000 H   0  0  0  0  0  0  0  0  0  0  0  0
    0.0000    0.0000    0.0000 H   0  0  0  0  0  0  0  0  0  0  0  0
    0.0000    0.0000    0.0000 H   0  0  0  0  0  0  0  0  0  0  0  0
    0.0000    0.0000    0.0000 H   0  0  0  0  0  0  0  0  0  0  0  0
    0.0000    0.0000    0.0000 H   0  0  0  0  0  0  0  0  0  0  0  0
    0.0000    0.0000    0.0000 H   0  0  0  0  0  0  0  0  0  0  0  0
    0.0000    0.0000    0.0000 H   0  0  0  0  0  0  0  0  0  0  0  0
    0.0000    0.0000    0.0000 H   0  0  0  0  0  0  0  0  0  0  0  0
    0.0000    0.0000    0.0000 H   0  0  0  0  0  0  0  0  0  0  0  0
    0.0000    0.0000    0.0000 H   0  0  0  0  0  0  0  0  0  0  0  0
    0.0000    0.0000    0.0000 H   0  0  0  0  0  0  0  0  0  0  0  0
    0.0000    0.0000    0.0000 H   0  0  0  0  0  0  0  0  0  0  0  0
    0.0000    0.0000    0.0000 H   0  0  0  0  0  0  0  0  0  0  0  0
    0.0000    0.0000    0.0000 H   0  0  0  0  0  0  0  0  0  0  0  0
    0.0000    0.0000    0.0000 H   0  0  0  0  0  0  0  0  0  0  0  0
    0.0000    0.0000    0.0000 H   0  0  0  0  0  0  0  0  0  0  0  0
    0.0000    0.0000    0.0000 H   0  0  0  0  0  0  0  0  0  0  0  0
    0.0000    0.0000    0.0000 H   0  0  0  0  0  0  0  0  0  0  0  0
    0.0000    0.0000    0.0000 H   0  0  0  0  0  0  0  0  0  0  0  0
    0.0000    0.0000    0.0000 H   0  0  0  0  0  0  0  0  0  0  0  0
    0.0000    0.0000    0.0000 H   0  0  0  0  0  0  0  0  0  0  0  0
    0.0000    0.0000    0.0000 H   0  0  0  0  0  0  0  0  0  0  0  0
    0.0000    0.0000    0.0000 H   0  0  0  0  0  0  0  0  0  0  0  0
    0.0000    0.0000    0.0000 H   0  0  0  0  0  0  0  0  0  0  0  0
    0.0000    0.0000    0.0000 H   0  0  0  0  0  0  0  0  0  0  0  0
    0.0000    0.0000    0.0000 H   0  0  0  0  0  0  0  0  0  0  0  0
    0.0000    0.0000    0.0000 H   0  0  0  0  0  0  0  0  0  0  0  0
    0.0000    0.0000    0.0000 H   0  0  0  0  0  0  0  0  0  0  0  0
    0.0000    0.0000    0.0000 H   0  0  0  0  0  0  0  0  0  0  0  0
    0.0000    0.0000    0.0000 H   0  0  0  0  0  0  0  0  0  0  0  0
    0.0000    0.0000    0.0000 H   0  0  0  0  0  0  0  0  0  0  0  0
    0.0000    0.0000    0.0000 H   0  0  0  0  0  0  0  0  0  0  0  0
    0.0000    0.0000    0.0000 H   0  0  0  0  0  0  0  0  0  0  0  0
    0.0000    0.0000    0.0000 H   0  0  0  0  0  0  0  0  0  0  0  0
    0.0000    0.0000    0.0000 H   0  0  0  0  0  0  0  0  0  0  0  0
    0.0000    0.0000    0.0000 H   0  0  0  0  0  0  0  0  0  0  0  0
    0.0000    0.0000    0.0000 H   0  0  0  0  0  0  0  0  0  0  0  0
    0.0000    0.0000    0.0000 H   0  0  0  0  0  0  0  0  0  0  0  0
    0.0000    0.0000    0.0000 H   0  0  0  0  0  0  0  0  0  0  0  0
    0.0000    0.0000    0.0000 H   0  0  0  0  0  0  0  0  0  0  0  0
    0.0000    0.0000    0.0000 H   0  0  0  0  0  0  0  0  0  0  0  0
    0.0000    0.0000    0.0000 H   0  0  0  0  0  0  0  0  0  0  0  0
    0.0000    0.0000    0.0000 H   0  0  0  0  0  0  0  0  0  0  0  0
    0.0000    0.0000    0.0000 H   0  0  0  0  0  0  0  0  0  0  0  0
    0.0000    0.0000    0.0000 H   0  0  0  0  0  0  0  0  0  0  0  0
    0.0000    0.0000    0.0000 H   0  0  0  0  0  0  0  0  0  0  0  0
    0.0000    0.0000    0.0000 H   0  0  0  0  0  0  0  0  0  0  0  0
    0.0000    0.0000    0.0000 H   0  0  0  0  0  0  0  0  0  0  0  0
    0.0000    0.0000    0.0000 H   0  0  0  0  0  0  0  0  0  0  0  0
    0.0000    0.0000    0.0000 H   0  0  0  0  0  0  0  0  0  0  0  0
    0.0000    0.0000    0.0000 H   0  0  0  0  0  0  0  0  0  0  0  0
    0.0000    0.0000    0.0000 H   0  0  0  0  0  0  0  0  0  0  0  0
    0.0000    0.0000    0.0000 H   0  0  0  0  0  0  0  0  0  0  0  0
    0.0000    0.0000    0.0000 H   0  0  0  0  0  0  0  0  0  0  0  0
    0.0000    0.0000    0.0000 H   0  0  0  0  0  0  0  0  0  0  0  0
    0.0000    0.0000    0.0000 H   0  0  0  0  0  0  0  0  0  0  0  0
    0.0000    0.0000    0.0000 H   0  0  0  0  0  0  0  0  0  0  0  0
    0.0000    0.0000    0.0000 H   0  0  0  0  0  0  0  0  0  0  0  0
    0.0000    0.0000    0.0000 H   0  0  0  0  0  0  0  0  0  0  0  0
    0.0000    0.0000    0.0000 H   0  0  0  0  0  0  0  0  0  0  0  0
    0.0000    0.0000    0.0000 H   0  0  0  0  0  0  0  0  0  0  0  0
    0.0000    0.0000    0.0000 H   0  0  0  0  0  0  0  0  0  0  0  0
    0.0000    0.0000    0.0000 H   0  0  0  0  0  0  0  0  0  0  0  0
    0.0000    0.0000    0.0000 H   0  0  0  0  0  0  0  0  0  0  0  0
    0.0000    0.0000    0.0000 H   0  0  0  0  0  0  0  0  0  0  0  0
    0.0000    0.0000    0.0000 H   0  0  0  0  0  0  0  0  0  0  0  0
    0.0000    0.0000    0.0000 H   0  0  0  0  0  0  0  0  0  0  0  0
    0.0000    0.0000    0.0000 H   0  0  0  0  0  0  0  0  0  0  0  0
  2  1  1  0
  3  2  1  0
 10  2  2  0
  4  3  1  0
  5  4  1  0
  6  5  1  6
 11  5  2  0
  7  6  1  0
  6 12  1  0
  8  7  1  0
  9  8  2  0
 15  8  1  6
 13 12  1  0
 14 13  1  0
 67 13  1  0
 16 15  1  0
 17 15  1  0
 18 16  1  0
 19 17  1  0
 20 17  1  0
 19 18  1  0
 21 20  1  6
 26 20  2  0
 21 22  1  0
 27 21  1  0
 23 22  1  0
 24 23  1  0
 30 23  2  0
 25 24  1  0
 24 31  1  1
 35 25  1  0
 28 27  1  0
 29 28  1  0
 52 29  1  0
 32 31  1  0
 33 32  2  0
 34 32  1  0
 36 35  1  0
 37 35  2  0
 36 38  1  6
 43 36  1  0
 39 38  1  0
 40 39  1  0
 41 40  1  0
 42 40  2  0
 47 43  1  0
 45 44  1  6
 48 44  1  0
 46 45  1  0
 45 68  1  0
 56 46  1  0
 47 46  1  0
 57 47  2  0
 50 49  1  0
 55 49  1  0
 51 50  1  0
 65 50  2  0
 52 51  1  0
 54 53  2  0
 55 53  1  0
 56 53  1  0
 55 58  1  6
 60 58  1  0
 61 59  2  0
 60 59  1  0
 63 60  2  0
 62 61  1  0
 64 62  2  0
 66 62  1  0
 64 63  1  0
 69 66  1  0
  1 70  1  0
  1 71  1  0
  3 72  1  0
  3 73  1  0
  4 74  1  0
  6 75  1  0
  7 76  1  0
 12 77  1  0
 12 78  1  0
 13 79  1  0
 14 80  1  0
 14 81  1  0
 14 82  1  0
 15 83  1  0
 16 84  1  0
 16 85  1  0
 18 86  1  0
 18 87  1  0
 19 88  1  0
 19 89  1  0
 21 90  1  0
 22 91  1  0
 24 92  1  0
 25 93  1  0
 27 94  1  0
 27 95  1  0
 29 96  1  0
 29 97  1  0
 31 98  1  0
 31 99  1  0
 34100  1  0
 34101  1  0
 36102  1  0
 38103  1  0
 38104  1  0
 39105  1  0
 39106  1  0
 41107  1  0
 41108  1  0
 43109  1  0
 44110  1  0
 44111  1  0
 45112  1  0
 46113  1  1
 48114  1  0
 48115  1  0
 48116  1  0
 49117  1  0
 51118  1  0
 51119  1  0
 52120  1  0
 52121  1  0
 55122  1  0
 56123  1  0
 58124  1  0
 58125  1  0
 59126  1  0
 61127  1  0
 63128  1  0
 64129  1  0
 67130  1  0
 67131  1  0
 67132  1  0
 68133  1  0
 68134  1  0
 68135  1  0
 69136  1  0
 69137  1  0
 69138  1  0
M  END
>  <ALOGPS_LOGP>  (1) 
0.14

>  <ALOGPS_LOGS>  (1) 
-4.57

>  <ALOGPS_SOLUBILITY>  (1) 
2.65e-02 g/l

>  <DATABASE_ID>  (1) 
DB01282

>  <DATABASE_NAME>  (1) 
drugbank

>  <DRUGBANK_ID>  (1) 
DB01282

>  <DRUG_GROUPS>  (1) 
approved

>  <EXACT_MASS>  (1) 
987.484787417

>  <FORMULA>  (1) 
C45H69N11O12S

>  <GENERIC_NAME>  (1) 
Carbetocin

>  <INCHI_IDENTIFIER>  (1) 
InChI=1S/C45H69N11O12S/c1-6-25(4)38-44(66)51-28(15-16-34(46)57)40(62)52-31(21-35(47)58)41(63)54-32(23-69-18-8-10-37(60)50-30(42(64)55-38)20-26-11-13-27(68-5)14-12-26)45(67)56-17-7-9-33(56)43(65)53-29(19-24(2)3)39(61)49-22-36(48)59/h11-14,24-25,28-33,38H,6-10,15-23H2,1-5H3,(H2,46,57)(H2,47,58)(H2,48,59)(H,49,61)(H,50,60)(H,51,66)(H,52,62)(H,53,65)(H,54,63)(H,55,64)/t25-,28-,29-,30-,31-,32-,33-,38-/m0/s1

>  <INCHI_KEY>  (1) 
NSTRIRCPWQHTIA-DTRKZRJBSA-N

>  <JCHEM_ACCEPTOR_COUNT>  (1) 
12

>  <JCHEM_AVERAGE_POLARIZABILITY>  (1) 
100.99727880204719

>  <JCHEM_BIOAVAILABILITY>  (1) 
0

>  <JCHEM_DONOR_COUNT>  (1) 
10

>  <JCHEM_FORMAL_CHARGE>  (1) 
0

>  <JCHEM_GHOSE_FILTER>  (1) 
0

>  <JCHEM_IUPAC>  (1) 
(2S)-2-{[(2S)-1-[(3R,6S,9S,12S,15S)-12-[(2S)-butan-2-yl]-9-(2-carbamoylethyl)-6-(carbamoylmethyl)-15-[(4-methoxyphenyl)methyl]-5,8,11,14,17-pentaoxo-1-thia-4,7,10,13,16-pentaazacycloicosane-3-carbonyl]pyrrolidin-2-yl]formamido}-N-(carbamoylmethyl)-4-methylpentanamide

>  <JCHEM_LOGP>  (1) 
-3.583771490000001

>  <JCHEM_MDDR_LIKE_RULE>  (1) 
1

>  <JCHEM_NUMBER_OF_RINGS>  (1) 
3

>  <JCHEM_PHYSIOLOGICAL_CHARGE>  (1) 
0

>  <JCHEM_PKA>  (1) 
11.828812285449233

>  <JCHEM_PKA_STRONGEST_ACIDIC>  (1) 
11.416484049165257

>  <JCHEM_POLAR_SURFACE_AREA>  (1) 
362.5099999999999

>  <JCHEM_REFRACTIVITY>  (1) 
250.18470000000008

>  <JCHEM_ROTATABLE_BOND_COUNT>  (1) 
18

>  <JCHEM_RULE_OF_FIVE>  (1) 
0

>  <JCHEM_TRADITIONAL_IUPAC>  (1) 
carbetocino

>  <JCHEM_VEBER_RULE>  (1) 
0

>  <MOLECULAR_WEIGHT>  (1) 
988.161

>  <PRODUCTS>  (1) 
Duratocin Injection

>  <SMILES>  (1) 
[H][C@]1(NC(=O)[C@H](CC2=CC=C(OC)C=C2)NC(=O)CCCSC[C@H](NC(=O)[C@H](CC(N)=O)NC(=O)[C@H](CCC(N)=O)NC1=O)C(=O)N1CCC[C@H]1C(=O)N[C@@H](CC(C)C)C(=O)NCC(N)=O)[C@@H](C)CC

>  <SYNONYMS>  (1) 
Carbetocino; Carbetocinum

$$$$
