1180
     RDKit          2D

 88 93  0  0  1  0  0  0  0  0999 V2000
    9.0363   -1.7074    0.0000 O   0  0  0  0  0  0  0  0  0  0  0  0
   10.1908   -0.4251    0.0000 O   0  0  0  0  0  0  0  0  0  0  0  0
    7.5971   -2.1231    0.0000 O   0  0  0  0  0  0  0  0  0  0  0  0
    6.5463   -1.1548    0.0000 O   0  0  0  0  0  0  0  0  0  0  0  0
   10.4823    0.9736    0.0000 O   0  0  0  0  0  0  0  0  0  0  0  0
    2.2047    1.5699    0.0000 O   0  0  0  0  0  0  0  0  0  0  0  0
   14.2286   -1.2671    0.0000 O   0  0  0  0  0  0  0  0  0  0  0  0
   14.8118    1.5303    0.0000 O   0  0  0  0  0  0  0  0  0  0  0  0
   15.3278   -0.0368    0.0000 O   0  0  0  0  0  0  0  0  0  0  0  0
    7.1069    1.7458    0.0000 N   0  0  0  0  0  0  0  0  0  0  0  0
    5.0832    0.8239    0.0000 N   0  0  0  0  0  0  0  0  0  0  0  0
    7.6469    0.1264    0.0000 C   0  0  0  0  0  0  0  0  0  0  0  0
    8.2218    0.7649    0.0000 C   0  0  0  0  0  0  0  0  0  0  0  0
    6.8078    0.3115    0.0000 C   0  0  0  0  0  0  0  0  0  0  0  0
    7.9102   -0.7289    0.0000 C   0  0  0  0  0  0  0  0  0  0  0  0
    6.5548    1.1327    0.0000 C   0  0  0  0  0  0  0  0  0  0  0  0
    7.9499    1.5801    0.0000 C   0  0  0  0  0  0  0  0  0  0  0  0
    9.1000    0.5924    0.0000 C   0  0  0  0  0  0  0  0  0  0  0  0
    8.7843   -0.9218    0.0000 C   0  0  0  0  0  0  0  0  0  0  0  0
    9.3832   -0.2567    0.0000 C   0  0  0  0  0  0  0  0  0  0  0  0
    5.7480    1.3042    0.0000 C   0  0  0  0  0  0  0  0  0  0  0  0
    6.8519    2.5303    0.0000 C   0  0  0  0  0  0  0  0  0  0  0  0
    5.4931    2.0888    0.0000 C   0  0  0  0  0  0  0  0  0  0  0  0
    6.0451    2.7018    0.0000 C   0  0  0  0  0  0  0  0  0  0  0  0
    7.3513   -1.3356    0.0000 C   0  0  0  0  0  0  0  0  0  0  0  0
    4.6731    2.0867    0.0000 C   0  0  0  0  0  0  0  0  0  0  0  0
    4.4203    1.3065    0.0000 C   0  0  0  0  0  0  0  0  0  0  0  0
    9.8424   -1.8820    0.0000 C   0  0  0  0  0  0  0  0  0  0  0  0
    4.1108    2.7297    0.0000 C   0  0  0  0  0  0  0  0  0  0  0  0
   10.7403    0.1901    0.0000 C   0  0  0  0  0  0  0  0  0  0  0  0
    3.5877    1.1154    0.0000 C   0  0  0  0  0  0  0  0  0  0  0  0
    3.2741    2.5578    0.0000 C   0  0  0  0  0  0  0  0  0  0  0  0
    3.0108    1.7452    0.0000 C   0  0  0  0  0  0  0  0  0  0  0  0
    7.0380   -2.7297    0.0000 C   0  0  0  0  0  0  0  0  0  0  0  0
   11.5480    0.0217    0.0000 C   0  0  0  0  0  0  0  0  0  0  0  0
   12.0975    0.6369    0.0000 C   0  0  0  0  0  0  0  0  0  0  0  0
    1.6499    2.1803    0.0000 C   0  0  0  0  0  0  0  0  0  0  0  0
   12.9051    0.4684    0.0000 C   0  0  0  0  0  0  0  0  0  0  0  0
   13.4546    1.0836    0.0000 C   0  0  0  0  0  0  0  0  0  0  0  0
   13.1630   -0.3151    0.0000 C   0  0  0  0  0  0  0  0  0  0  0  0
   13.9706   -0.4836    0.0000 C   0  0  0  0  0  0  0  0  0  0  0  0
   14.2623    0.9151    0.0000 C   0  0  0  0  0  0  0  0  0  0  0  0
   14.5202    0.1317    0.0000 C   0  0  0  0  0  0  0  0  0  0  0  0
   13.6789   -1.8823    0.0000 C   0  0  0  0  0  0  0  0  0  0  0  0
   14.5539    2.3139    0.0000 C   0  0  0  0  0  0  0  0  0  0  0  0
   15.8774    0.5784    0.0000 C   0  0  0  0  0  0  0  0  0  0  0  0
    0.0000    0.0000    0.0000 H   0  0  0  0  0  0  0  0  0  0  0  0
    0.0000    0.0000    0.0000 H   0  0  0  0  0  0  0  0  0  0  0  0
    0.0000    0.0000    0.0000 H   0  0  0  0  0  0  0  0  0  0  0  0
    0.0000    0.0000    0.0000 H   0  0  0  0  0  0  0  0  0  0  0  0
    0.0000    0.0000    0.0000 H   0  0  0  0  0  0  0  0  0  0  0  0
    0.0000    0.0000    0.0000 H   0  0  0  0  0  0  0  0  0  0  0  0
    0.0000    0.0000    0.0000 H   0  0  0  0  0  0  0  0  0  0  0  0
    0.0000    0.0000    0.0000 H   0  0  0  0  0  0  0  0  0  0  0  0
    0.0000    0.0000    0.0000 H   0  0  0  0  0  0  0  0  0  0  0  0
    0.0000    0.0000    0.0000 H   0  0  0  0  0  0  0  0  0  0  0  0
    0.0000    0.0000    0.0000 H   0  0  0  0  0  0  0  0  0  0  0  0
    0.0000    0.0000    0.0000 H   0  0  0  0  0  0  0  0  0  0  0  0
    0.0000    0.0000    0.0000 H   0  0  0  0  0  0  0  0  0  0  0  0
    0.0000    0.0000    0.0000 H   0  0  0  0  0  0  0  0  0  0  0  0
    0.0000    0.0000    0.0000 H   0  0  0  0  0  0  0  0  0  0  0  0
    0.0000    0.0000    0.0000 H   0  0  0  0  0  0  0  0  0  0  0  0
    0.0000    0.0000    0.0000 H   0  0  0  0  0  0  0  0  0  0  0  0
    0.0000    0.0000    0.0000 H   0  0  0  0  0  0  0  0  0  0  0  0
    0.0000    0.0000    0.0000 H   0  0  0  0  0  0  0  0  0  0  0  0
    0.0000    0.0000    0.0000 H   0  0  0  0  0  0  0  0  0  0  0  0
    0.0000    0.0000    0.0000 H   0  0  0  0  0  0  0  0  0  0  0  0
    0.0000    0.0000    0.0000 H   0  0  0  0  0  0  0  0  0  0  0  0
    0.0000    0.0000    0.0000 H   0  0  0  0  0  0  0  0  0  0  0  0
    0.0000    0.0000    0.0000 H   0  0  0  0  0  0  0  0  0  0  0  0
    0.0000    0.0000    0.0000 H   0  0  0  0  0  0  0  0  0  0  0  0
    0.0000    0.0000    0.0000 H   0  0  0  0  0  0  0  0  0  0  0  0
    0.0000    0.0000    0.0000 H   0  0  0  0  0  0  0  0  0  0  0  0
    0.0000    0.0000    0.0000 H   0  0  0  0  0  0  0  0  0  0  0  0
    0.0000    0.0000    0.0000 H   0  0  0  0  0  0  0  0  0  0  0  0
    0.0000    0.0000    0.0000 H   0  0  0  0  0  0  0  0  0  0  0  0
    0.0000    0.0000    0.0000 H   0  0  0  0  0  0  0  0  0  0  0  0
    0.0000    0.0000    0.0000 H   0  0  0  0  0  0  0  0  0  0  0  0
    0.0000    0.0000    0.0000 H   0  0  0  0  0  0  0  0  0  0  0  0
    0.0000    0.0000    0.0000 H   0  0  0  0  0  0  0  0  0  0  0  0
    0.0000    0.0000    0.0000 H   0  0  0  0  0  0  0  0  0  0  0  0
    0.0000    0.0000    0.0000 H   0  0  0  0  0  0  0  0  0  0  0  0
    0.0000    0.0000    0.0000 H   0  0  0  0  0  0  0  0  0  0  0  0
    0.0000    0.0000    0.0000 H   0  0  0  0  0  0  0  0  0  0  0  0
    0.0000    0.0000    0.0000 H   0  0  0  0  0  0  0  0  0  0  0  0
    0.0000    0.0000    0.0000 H   0  0  0  0  0  0  0  0  0  0  0  0
    0.0000    0.0000    0.0000 H   0  0  0  0  0  0  0  0  0  0  0  0
    0.0000    0.0000    0.0000 H   0  0  0  0  0  0  0  0  0  0  0  0
 19  1  1  6
  1 28  1  0
 20  2  1  6
  2 30  1  0
  3 25  1  0
  3 34  1  0
  4 25  2  0
  5 30  2  0
  6 33  1  0
  6 37  1  0
  7 41  1  0
  7 44  1  0
  8 42  1  0
  8 45  1  0
  9 43  1  0
  9 46  1  0
 10 16  1  0
 10 17  1  0
 10 22  1  0
 11 21  1  0
 11 27  1  0
 12 13  1  0
 12 14  1  0
 12 15  1  0
 13 17  1  0
 13 18  1  0
 14 16  1  0
 15 19  1  0
 15 25  1  1
 16 21  1  0
 18 20  1  0
 19 20  1  0
 21 23  2  0
 22 24  1  0
 23 24  1  0
 23 26  1  0
 26 27  2  0
 26 29  1  0
 27 31  1  0
 29 32  2  0
 30 35  1  0
 31 33  2  0
 32 33  1  0
 35 36  2  3
 36 38  1  0
 38 39  2  0
 38 40  1  0
 39 42  1  0
 40 41  2  0
 41 43  1  0
 42 43  2  0
 11 47  1  0
 12 48  1  6
 13 49  1  6
 14 50  1  0
 14 51  1  0
 15 52  1  0
 16 53  1  1
 17 54  1  0
 17 55  1  0
 18 56  1  0
 18 57  1  0
 19 58  1  0
 20 59  1  0
 22 60  1  0
 22 61  1  0
 24 62  1  0
 24 63  1  0
 28 64  1  0
 28 65  1  0
 28 66  1  0
 29 67  1  0
 31 68  1  0
 32 69  1  0
 34 70  1  0
 34 71  1  0
 34 72  1  0
 35 73  1  0
 36 74  1  0
 37 75  1  0
 37 76  1  0
 37 77  1  0
 39 78  1  0
 40 79  1  0
 44 80  1  0
 44 81  1  0
 44 82  1  0
 45 83  1  0
 45 84  1  0
 45 85  1  0
 46 86  1  0
 46 87  1  0
 46 88  1  0
M  END
>  <ALOGPS_LOGP>  (1) 
4.48

>  <ALOGPS_LOGS>  (1) 
-5.26

>  <ALOGPS_SOLUBILITY>  (1) 
3.49e-03 g/l

>  <DATABASE_ID>  (1) 
DB01180

>  <DATABASE_NAME>  (1) 
drugbank

>  <DRUGBANK_ID>  (1) 
DB01180

>  <DRUG_GROUPS>  (1) 
approved

>  <EXACT_MASS>  (1) 
634.289030952

>  <FORMULA>  (1) 
C35H42N2O9

>  <GENERIC_NAME>  (1) 
Rescinnamine

>  <INCHI_IDENTIFIER>  (1) 
InChI=1S/C35H42N2O9/c1-40-21-8-9-22-23-11-12-37-18-20-15-29(46-30(38)10-7-19-13-27(41-2)33(43-4)28(14-19)42-3)34(44-5)31(35(39)45-6)24(20)17-26(37)32(23)36-25(22)16-21/h7-10,13-14,16,20,24,26,29,31,34,36H,11-12,15,17-18H2,1-6H3/t20-,24+,26-,29-,31+,34+/m1/s1

>  <INCHI_KEY>  (1) 
SZLZWPPUNLXJEA-LAFLMMDJSA-N

>  <INTERNATIONAL_BRANDS>  (1) 
Tsuruselpi S

>  <JCHEM_ACCEPTOR_COUNT>  (1) 
8

>  <JCHEM_AVERAGE_POLARIZABILITY>  (1) 
69.65449428175995

>  <JCHEM_BIOAVAILABILITY>  (1) 
0

>  <JCHEM_DONOR_COUNT>  (1) 
1

>  <JCHEM_FORMAL_CHARGE>  (1) 
0

>  <JCHEM_GHOSE_FILTER>  (1) 
0

>  <JCHEM_IUPAC>  (1) 
methyl (1R,15S,17R,18R,19S,20S)-6,18-dimethoxy-17-{[3-(3,4,5-trimethoxyphenyl)prop-2-enoyl]oxy}-3,13-diazapentacyclo[11.8.0.0²,¹⁰.0⁴,⁹.0¹⁵,²⁰]henicosa-2(10),4(9),5,7-tetraene-19-carboxylate

>  <JCHEM_LOGP>  (1) 
4.070086811999999

>  <JCHEM_MDDR_LIKE_RULE>  (1) 
1

>  <JCHEM_NUMBER_OF_RINGS>  (1) 
6

>  <JCHEM_PHYSIOLOGICAL_CHARGE>  (1) 
1

>  <JCHEM_PKA_STRONGEST_ACIDIC>  (1) 
16.290112706694284

>  <JCHEM_PKA_STRONGEST_BASIC>  (1) 
7.559517906323249

>  <JCHEM_POLAR_SURFACE_AREA>  (1) 
117.78

>  <JCHEM_REFRACTIVITY>  (1) 
171.16419999999994

>  <JCHEM_ROTATABLE_BOND_COUNT>  (1) 
11

>  <JCHEM_RULE_OF_FIVE>  (1) 
0

>  <JCHEM_TRADITIONAL_IUPAC>  (1) 
rescinnamine

>  <JCHEM_VEBER_RULE>  (1) 
0

>  <MOLECULAR_WEIGHT>  (1) 
634.716

>  <SECONDARY_ACCESSION_NUMBERS>  (1) 
APRD00112

>  <SMILES>  (1) 
[H][C@]12C[C@@H](OC(=O)C=CC3=CC(OC)=C(OC)C(OC)=C3)[C@H](OC)[C@@H](C(=O)OC)[C@@]1([H])C[C@@]1([H])N(CCC3=C1NC1=C3C=CC(OC)=C1)C2

>  <SYNONYMS>  (1) 
3,4,5-Trimethoxycinnamoyl methyl reserpate

$$$$
