
     RDKit          2D

 49 52  0  0  0  0  0  0  0  0999 V2000
    7.7254    1.5548    0.0000 O   0  0  0  0  0  0  0  0  0  0  0  0
    2.3626   -1.9994    0.0000 O   0  0  0  0  0  0  0  0  0  0  0  0
    6.8116    0.5185    0.0000 C   0  0  0  0  0  0  0  0  0  0  0  0
    6.8116   -0.3064    0.0000 C   0  0  0  0  0  0  0  0  0  0  0  0
    6.0971   -0.7188    0.0000 C   0  0  0  0  0  0  0  0  0  0  0  0
    7.5921    0.7699    0.0000 C   0  0  0  0  0  0  0  0  0  0  0  0
    6.0971    0.9310    0.0000 C   0  0  0  0  0  0  0  0  0  0  0  0
    7.5921   -0.5577    0.0000 C   0  0  0  0  0  0  0  0  0  0  0  0
    5.3827    0.5185    0.0000 C   0  0  0  0  0  0  0  0  0  0  0  0
    8.0734    0.1061    0.0000 C   0  0  0  0  0  0  0  0  0  0  0  0
    6.1102   -1.5781    0.0000 C   0  0  0  0  0  0  0  0  0  0  0  0
    6.8116    1.3434    0.0000 C   0  0  0  0  0  0  0  0  0  0  0  0
    4.6321   -0.7245    0.0000 C   0  0  0  0  0  0  0  0  0  0  0  0
    5.3696   -2.0134    0.0000 C   0  0  0  0  0  0  0  0  0  0  0  0
    4.6255   -1.5838    0.0000 C   0  0  0  0  0  0  0  0  0  0  0  0
    8.2602    0.9263    0.0000 C   0  0  0  0  0  0  0  0  0  0  0  0
    3.8674   -0.2592    0.0000 C   0  0  0  0  0  0  0  0  0  0  0  0
    3.8538   -2.0372    0.0000 C   0  0  0  0  0  0  0  0  0  0  0  0
    3.0855   -0.6947    0.0000 C   0  0  0  0  0  0  0  0  0  0  0  0
    3.0785   -1.5898    0.0000 C   0  0  0  0  0  0  0  0  0  0  0  0
    9.0774    1.0528    0.0000 C   0  0  0  0  0  0  0  0  0  0  0  0
    5.3827   -0.3064    0.0000 C   0  0  0  0  0  0  0  0  0  0  0  0
    1.6497   -1.5840    0.0000 C   0  0  0  0  0  0  0  0  0  0  0  0
    0.0000    0.0000    0.0000 H   0  0  0  0  0  0  0  0  0  0  0  0
    0.0000    0.0000    0.0000 H   0  0  0  0  0  0  0  0  0  0  0  0
    0.0000    0.0000    0.0000 H   0  0  0  0  0  0  0  0  0  0  0  0
    0.0000    0.0000    0.0000 H   0  0  0  0  0  0  0  0  0  0  0  0
    0.0000    0.0000    0.0000 H   0  0  0  0  0  0  0  0  0  0  0  0
    0.0000    0.0000    0.0000 H   0  0  0  0  0  0  0  0  0  0  0  0
    0.0000    0.0000    0.0000 H   0  0  0  0  0  0  0  0  0  0  0  0
    0.0000    0.0000    0.0000 H   0  0  0  0  0  0  0  0  0  0  0  0
    0.0000    0.0000    0.0000 H   0  0  0  0  0  0  0  0  0  0  0  0
    0.0000    0.0000    0.0000 H   0  0  0  0  0  0  0  0  0  0  0  0
    0.0000    0.0000    0.0000 H   0  0  0  0  0  0  0  0  0  0  0  0
    0.0000    0.0000    0.0000 H   0  0  0  0  0  0  0  0  0  0  0  0
    0.0000    0.0000    0.0000 H   0  0  0  0  0  0  0  0  0  0  0  0
    0.0000    0.0000    0.0000 H   0  0  0  0  0  0  0  0  0  0  0  0
    0.0000    0.0000    0.0000 H   0  0  0  0  0  0  0  0  0  0  0  0
    0.0000    0.0000    0.0000 H   0  0  0  0  0  0  0  0  0  0  0  0
    0.0000    0.0000    0.0000 H   0  0  0  0  0  0  0  0  0  0  0  0
    0.0000    0.0000    0.0000 H   0  0  0  0  0  0  0  0  0  0  0  0
    0.0000    0.0000    0.0000 H   0  0  0  0  0  0  0  0  0  0  0  0
    0.0000    0.0000    0.0000 H   0  0  0  0  0  0  0  0  0  0  0  0
    0.0000    0.0000    0.0000 H   0  0  0  0  0  0  0  0  0  0  0  0
    0.0000    0.0000    0.0000 H   0  0  0  0  0  0  0  0  0  0  0  0
    0.0000    0.0000    0.0000 H   0  0  0  0  0  0  0  0  0  0  0  0
    0.0000    0.0000    0.0000 H   0  0  0  0  0  0  0  0  0  0  0  0
    0.0000    0.0000    0.0000 H   0  0  0  0  0  0  0  0  0  0  0  0
    0.0000    0.0000    0.0000 H   0  0  0  0  0  0  0  0  0  0  0  0
  6  1  1  1
  2 20  1  0
  3  4  1  0
  3  6  1  0
  3  7  1  0
  3 12  1  1
  4  5  1  0
  4  8  1  0
  5 11  1  0
  6 10  1  0
  6 16  1  0
  7  9  1  0
  8 10  1  0
 11 14  1  0
 13 15  2  0
 13 17  1  0
 14 15  1  0
 15 18  1  0
 16 21  3  0
 17 19  2  0
 18 20  2  0
 19 20  1  0
  5 22  1  0
 22  9  1  0
 22 13  1  0
  2 23  1  0
  1 24  1  0
  4 25  1  6
  5 26  1  1
  7 27  1  0
  7 28  1  0
  8 29  1  0
  8 30  1  0
  9 31  1  0
  9 32  1  0
 10 33  1  0
 10 34  1  0
 11 35  1  0
 11 36  1  0
 12 37  1  0
 12 38  1  0
 12 39  1  0
 14 40  1  0
 14 41  1  0
 17 42  1  0
 18 43  1  0
 19 44  1  0
 21 45  1  0
 22 46  1  6
 23 47  1  0
 23 48  1  0
 23 49  1  0
M  END
>  <ALOGPS_LOGP>  (1) 
3.89

>  <ALOGPS_LOGS>  (1) 
-4.92

>  <ALOGPS_SOLUBILITY>  (1) 
3.77e-03 g/l

>  <DATABASE_ID>  (1) 
DB01357

>  <DATABASE_NAME>  (1) 
drugbank

>  <DRUGBANK_ID>  (1) 
DB01357

>  <DRUG_GROUPS>  (1) 
approved

>  <EXACT_MASS>  (1) 
310.193280076

>  <FORMULA>  (1) 
C21H26O2

>  <GENERIC_NAME>  (1) 
Mestranol

>  <INCHI_IDENTIFIER>  (1) 
InChI=1S/C21H26O2/c1-4-21(22)12-10-19-18-7-5-14-13-15(23-3)6-8-16(14)17(18)9-11-20(19,21)2/h1,6,8,13,17-19,22H,5,7,9-12H2,2-3H3/t17-,18-,19+,20+,21+/m1/s1

>  <INCHI_KEY>  (1) 
IMSSROKUHAOUJS-MJCUULBUSA-N

>  <JCHEM_ACCEPTOR_COUNT>  (1) 
2

>  <JCHEM_AVERAGE_POLARIZABILITY>  (1) 
36.69513287062885

>  <JCHEM_BIOAVAILABILITY>  (1) 
1

>  <JCHEM_DONOR_COUNT>  (1) 
1

>  <JCHEM_FORMAL_CHARGE>  (1) 
0

>  <JCHEM_GHOSE_FILTER>  (1) 
1

>  <JCHEM_IUPAC>  (1) 
(1S,10R,11S,14R,15S)-14-ethynyl-5-methoxy-15-methyltetracyclo[8.7.0.0²,⁷.0¹¹,¹⁵]heptadeca-2(7),3,5-trien-14-ol

>  <JCHEM_LOGP>  (1) 
4.043247144

>  <JCHEM_MDDR_LIKE_RULE>  (1) 
0

>  <JCHEM_NUMBER_OF_RINGS>  (1) 
4

>  <JCHEM_PHYSIOLOGICAL_CHARGE>  (1) 
0

>  <JCHEM_PKA_STRONGEST_ACIDIC>  (1) 
17.594918895355708

>  <JCHEM_PKA_STRONGEST_BASIC>  (1) 
-1.6634785376158088

>  <JCHEM_POLAR_SURFACE_AREA>  (1) 
29.46

>  <JCHEM_REFRACTIVITY>  (1) 
91.85679999999999

>  <JCHEM_ROTATABLE_BOND_COUNT>  (1) 
1

>  <JCHEM_RULE_OF_FIVE>  (1) 
1

>  <JCHEM_TRADITIONAL_IUPAC>  (1) 
mestranol

>  <JCHEM_VEBER_RULE>  (1) 
1

>  <MOLECULAR_WEIGHT>  (1) 
310.4299

>  <PRODUCTS>  (1) 
Necon; Norinyl; Norinyl 1/50   -(21-day Regimen); Norinyl 1/50   -(28-day Regimen); Norinyl 1/50 21 Tab; Norinyl 1/50 28 Tab; Ortho-novum 1/50 Tablets (21 Day); Ortho-novum 1/50 Tablets (28 Day)

>  <SMILES>  (1) 
[H][C@@]12CC[C@@](O)(C#C)[C@@]1(C)CC[C@]1([H])C3=C(CC[C@@]21[H])C=C(OC)C=C3

$$$$
