
     RDKit          2D

 59 60  0  0  0  0  0  0  0  0999 V2000
   -2.0959    1.3008    0.0000 C   0  0  0  0  0  0  0  0  0  0  0  0
   -2.0959    0.4758    0.0000 C   0  0  0  0  0  0  0  0  0  0  0  0
   -1.3830    0.0633    0.0000 C   0  0  0  0  0  0  0  0  0  0  0  0
   -1.3830    1.7134    0.0000 O   0  0  0  0  0  0  0  0  0  0  0  0
   -0.6702    1.3008    0.0000 C   0  0  0  0  0  0  0  0  0  0  0  0
   -0.6656    0.4748    0.0000 C   0  0  0  0  0  0  0  0  0  0  0  0
    0.1213    0.2238    0.0000 C   0  0  0  0  0  0  0  0  0  0  0  0
    0.6032    0.8948    0.0000 C   0  0  0  0  0  0  0  0  0  0  0  0
    0.1139    1.5603    0.0000 C   0  0  0  0  0  0  0  0  0  0  0  0
    1.4282    0.8994    0.0000 O   0  0  0  0  0  0  0  0  0  0  0  0
   -2.5311    2.0056    0.0000 C   0  0  0  0  0  0  0  0  0  0  0  0
   -3.3584    1.9856    0.0000 C   0  0  0  0  0  0  0  0  0  0  0  0
   -1.8313    2.4454    0.0000 F   0  0  0  0  0  0  0  0  0  0  0  0
   -2.5622    2.8300    0.0000 F   0  0  0  0  0  0  0  0  0  0  0  0
   -3.7909    2.6860    0.0000 C   0  0  0  0  0  0  0  0  0  0  0  0
   -2.9209    1.3008    0.0000 O   0  0  0  0  0  0  0  0  0  0  0  0
   -4.6155    2.6617    0.0000 C   0  0  0  0  0  0  0  0  0  0  0  0
   -5.0489    3.3637    0.0000 C   0  0  0  0  0  0  0  0  0  0  0  0
    0.5247   -0.4850    0.0000 C   0  0  0  0  0  0  0  0  0  0  0  0
    1.3498   -0.4903    0.0000 C   0  0  0  0  0  0  0  0  0  0  0  0
    1.7578   -1.2073    0.0000 C   0  0  0  0  0  0  0  0  0  0  0  0
    2.5828   -1.2125    0.0000 C   0  0  0  0  0  0  0  0  0  0  0  0
    2.9908   -1.9295    0.0000 C   0  0  0  0  0  0  0  0  0  0  0  0
    3.8158   -1.9347    0.0000 C   0  0  0  0  0  0  0  0  0  0  0  0
    4.2238   -2.6518    0.0000 C   0  0  0  0  0  0  0  0  0  0  0  0
    3.8068   -3.3637    0.0000 O   0  0  0  0  0  0  0  0  0  0  0  0
    5.0489   -2.6569    0.0000 O   0  0  0  0  0  0  0  0  0  0  0  0
    0.0000    0.0000    0.0000 H   0  0  0  0  0  0  0  0  0  0  0  0
    0.0000    0.0000    0.0000 H   0  0  0  0  0  0  0  0  0  0  0  0
    0.0000    0.0000    0.0000 H   0  0  0  0  0  0  0  0  0  0  0  0
    0.0000    0.0000    0.0000 H   0  0  0  0  0  0  0  0  0  0  0  0
    0.0000    0.0000    0.0000 H   0  0  0  0  0  0  0  0  0  0  0  0
    0.0000    0.0000    0.0000 H   0  0  0  0  0  0  0  0  0  0  0  0
    0.0000    0.0000    0.0000 H   0  0  0  0  0  0  0  0  0  0  0  0
    0.0000    0.0000    0.0000 H   0  0  0  0  0  0  0  0  0  0  0  0
    0.0000    0.0000    0.0000 H   0  0  0  0  0  0  0  0  0  0  0  0
    0.0000    0.0000    0.0000 H   0  0  0  0  0  0  0  0  0  0  0  0
    0.0000    0.0000    0.0000 H   0  0  0  0  0  0  0  0  0  0  0  0
    0.0000    0.0000    0.0000 H   0  0  0  0  0  0  0  0  0  0  0  0
    0.0000    0.0000    0.0000 H   0  0  0  0  0  0  0  0  0  0  0  0
    0.0000    0.0000    0.0000 H   0  0  0  0  0  0  0  0  0  0  0  0
    0.0000    0.0000    0.0000 H   0  0  0  0  0  0  0  0  0  0  0  0
    0.0000    0.0000    0.0000 H   0  0  0  0  0  0  0  0  0  0  0  0
    0.0000    0.0000    0.0000 H   0  0  0  0  0  0  0  0  0  0  0  0
    0.0000    0.0000    0.0000 H   0  0  0  0  0  0  0  0  0  0  0  0
    0.0000    0.0000    0.0000 H   0  0  0  0  0  0  0  0  0  0  0  0
    0.0000    0.0000    0.0000 H   0  0  0  0  0  0  0  0  0  0  0  0
    0.0000    0.0000    0.0000 H   0  0  0  0  0  0  0  0  0  0  0  0
    0.0000    0.0000    0.0000 H   0  0  0  0  0  0  0  0  0  0  0  0
    0.0000    0.0000    0.0000 H   0  0  0  0  0  0  0  0  0  0  0  0
    0.0000    0.0000    0.0000 H   0  0  0  0  0  0  0  0  0  0  0  0
    0.0000    0.0000    0.0000 H   0  0  0  0  0  0  0  0  0  0  0  0
    0.0000    0.0000    0.0000 H   0  0  0  0  0  0  0  0  0  0  0  0
    0.0000    0.0000    0.0000 H   0  0  0  0  0  0  0  0  0  0  0  0
    0.0000    0.0000    0.0000 H   0  0  0  0  0  0  0  0  0  0  0  0
    0.0000    0.0000    0.0000 H   0  0  0  0  0  0  0  0  0  0  0  0
    0.0000    0.0000    0.0000 H   0  0  0  0  0  0  0  0  0  0  0  0
    0.0000    0.0000    0.0000 H   0  0  0  0  0  0  0  0  0  0  0  0
    0.0000    0.0000    0.0000 H   0  0  0  0  0  0  0  0  0  0  0  0
 11 14  1  0
  2  3  1  0
 12 15  1  0
  3  6  1  0
  1 16  1  1
  6  7  1  0
 15 17  1  0
  7  8  1  0
 17 18  1  0
  8  9  1  0
  9  5  1  0
  5  4  1  0
  7 19  1  6
  8 10  2  0
 19 20  1  0
  5  6  1  0
 20 21  1  0
  1 11  1  0
 21 22  1  0
 22 23  1  0
 11 12  1  0
 23 24  1  0
  1  2  1  0
 24 25  1  0
 11 13  1  0
 25 26  2  0
  1  4  1  0
 25 27  1  0
  2 28  1  0
  2 29  1  0
  3 30  1  0
  3 31  1  0
  5 32  1  1
  6 33  1  6
  7 34  1  0
  9 35  1  0
  9 36  1  0
 12 37  1  0
 12 38  1  0
 15 39  1  0
 15 40  1  0
 16 41  1  0
 17 42  1  0
 17 43  1  0
 18 44  1  0
 18 45  1  0
 18 46  1  0
 19 47  1  0
 19 48  1  0
 20 49  1  0
 20 50  1  0
 21 51  1  0
 21 52  1  0
 22 53  1  0
 22 54  1  0
 23 55  1  0
 23 56  1  0
 24 57  1  0
 24 58  1  0
 27 59  1  0
M  END
>  <ALOGPS_LOGP>  (1) 
2.76

>  <ALOGPS_LOGS>  (1) 
-4.18

>  <ALOGPS_SOLUBILITY>  (1) 
2.56e-02 g/l

>  <DATABASE_ID>  (1) 
DB01046

>  <DATABASE_NAME>  (1) 
drugbank

>  <DRUGBANK_ID>  (1) 
DB01046

>  <DRUG_GROUPS>  (1) 
approved; investigational

>  <EXACT_MASS>  (1) 
390.221780456

>  <FORMULA>  (1) 
C20H32F2O5

>  <GENERIC_NAME>  (1) 
Lubiprostone

>  <INCHI_IDENTIFIER>  (1) 
InChI=1S/C20H32F2O5/c1-2-3-11-19(21,22)20(26)12-10-15-14(16(23)13-17(15)27-20)8-6-4-5-7-9-18(24)25/h14-15,17,26H,2-13H2,1H3,(H,24,25)/t14-,15-,17-,20-/m1/s1

>  <INCHI_KEY>  (1) 
WGFOBBZOWHGYQH-MXHNKVEKSA-N

>  <JCHEM_ACCEPTOR_COUNT>  (1) 
5

>  <JCHEM_ATOM_COUNT>  (1) 
59

>  <JCHEM_AVERAGE_POLARIZABILITY>  (1) 
42.34780207892988

>  <JCHEM_BIOAVAILABILITY>  (1) 
1

>  <JCHEM_DONOR_COUNT>  (1) 
2

>  <JCHEM_FORMAL_CHARGE>  (1) 
0

>  <JCHEM_GHOSE_FILTER>  (1) 
1

>  <JCHEM_IUPAC>  (1) 
7-[(2R,4aR,5R,7aR)-2-(1,1-difluoropentyl)-2-hydroxy-6-oxo-octahydrocyclopenta[b]pyran-5-yl]heptanoic acid

>  <JCHEM_LOGP>  (1) 
4.563896638333332

>  <JCHEM_MDDR_LIKE_RULE>  (1) 
0

>  <JCHEM_NUMBER_OF_RINGS>  (1) 
2

>  <JCHEM_PHYSIOLOGICAL_CHARGE>  (1) 
-1

>  <JCHEM_PKA>  (1) 
9.6804921656489

>  <JCHEM_PKA_STRONGEST_ACIDIC>  (1) 
4.304478433584986

>  <JCHEM_PKA_STRONGEST_BASIC>  (1) 
-4.395927408994909

>  <JCHEM_POLAR_SURFACE_AREA>  (1) 
83.83

>  <JCHEM_REFRACTIVITY>  (1) 
95.6009

>  <JCHEM_ROTATABLE_BOND_COUNT>  (1) 
11

>  <JCHEM_RULE_OF_FIVE>  (1) 
1

>  <JCHEM_TRADITIONAL_IUPAC>  (1) 
lubiprostone

>  <JCHEM_VEBER_RULE>  (1) 
0

>  <MOLECULAR_WEIGHT>  (1) 
390.468

>  <PRODUCTS>  (1) 
Amitiza

>  <SECONDARY_ACCESSION_NUMBERS>  (1) 
APRD01298

>  <SMILES>  (1) 
[H][C@@]12CC(=O)[C@H](CCCCCCC(O)=O)[C@@]1([H])CC[C@@](O)(O2)C(F)(F)CCCC

$$$$
