1094
     RDKit          2D

 36 38  0  0  1  0  0  0  0  0999 V2000
    5.9369    0.2231    0.0000 O   0  0  0  0  0  0  0  0  0  0  0  0
    5.9369   -2.2519    0.0000 O   0  0  0  0  0  0  0  0  0  0  0  0
    7.3793   -2.2805    0.0000 O   0  0  0  0  0  0  0  0  0  0  0  0
    2.3644    1.4606    0.0000 O   0  0  0  0  0  0  0  0  0  0  0  0
    3.7934    2.2856    0.0000 O   0  0  0  0  0  0  0  0  0  0  0  0
    8.8492    0.2430    0.0000 O   0  0  0  0  0  0  0  0  0  0  0  0
    5.2223   -0.1894    0.0000 C   0  0  0  0  0  0  0  0  0  0  0  0
    5.2223   -1.0144    0.0000 C   0  0  0  0  0  0  0  0  0  0  0  0
    4.5079    0.2231    0.0000 C   0  0  0  0  0  0  0  0  0  0  0  0
    6.6513   -1.0144    0.0000 C   0  0  0  0  0  0  0  0  0  0  0  0
    5.9369   -1.4269    0.0000 C   0  0  0  0  0  0  0  0  0  0  0  0
    6.6513   -0.1894    0.0000 C   0  0  0  0  0  0  0  0  0  0  0  0
    4.5079    1.0481    0.0000 C   0  0  0  0  0  0  0  0  0  0  0  0
    3.7934   -0.1894    0.0000 C   0  0  0  0  0  0  0  0  0  0  0  0
    7.3888   -1.4555    0.0000 C   0  0  0  0  0  0  0  0  0  0  0  0
    7.3888    0.2517    0.0000 C   0  0  0  0  0  0  0  0  0  0  0  0
    3.7934    1.4606    0.0000 C   0  0  0  0  0  0  0  0  0  0  0  0
    8.1363   -1.0316    0.0000 C   0  0  0  0  0  0  0  0  0  0  0  0
    8.1363   -0.1723    0.0000 C   0  0  0  0  0  0  0  0  0  0  0  0
    3.0790    0.2231    0.0000 C   0  0  0  0  0  0  0  0  0  0  0  0
    3.0790    1.0481    0.0000 C   0  0  0  0  0  0  0  0  0  0  0  0
    1.6500    1.0481    0.0000 C   0  0  0  0  0  0  0  0  0  0  0  0
    0.0000    0.0000    0.0000 H   0  0  0  0  0  0  0  0  0  0  0  0
    0.0000    0.0000    0.0000 H   0  0  0  0  0  0  0  0  0  0  0  0
    0.0000    0.0000    0.0000 H   0  0  0  0  0  0  0  0  0  0  0  0
    0.0000    0.0000    0.0000 H   0  0  0  0  0  0  0  0  0  0  0  0
    0.0000    0.0000    0.0000 H   0  0  0  0  0  0  0  0  0  0  0  0
    0.0000    0.0000    0.0000 H   0  0  0  0  0  0  0  0  0  0  0  0
    0.0000    0.0000    0.0000 H   0  0  0  0  0  0  0  0  0  0  0  0
    0.0000    0.0000    0.0000 H   0  0  0  0  0  0  0  0  0  0  0  0
    0.0000    0.0000    0.0000 H   0  0  0  0  0  0  0  0  0  0  0  0
    0.0000    0.0000    0.0000 H   0  0  0  0  0  0  0  0  0  0  0  0
    0.0000    0.0000    0.0000 H   0  0  0  0  0  0  0  0  0  0  0  0
    0.0000    0.0000    0.0000 H   0  0  0  0  0  0  0  0  0  0  0  0
    0.0000    0.0000    0.0000 H   0  0  0  0  0  0  0  0  0  0  0  0
    0.0000    0.0000    0.0000 H   0  0  0  0  0  0  0  0  0  0  0  0
  1  7  1  0
  1 12  1  0
  2 11  2  0
  3 15  1  0
  4 21  1  0
  4 22  1  0
  5 17  1  0
  6 19  1  0
  7  8  1  0
  7  9  1  1
  8 11  1  0
  9 13  2  0
  9 14  1  0
 10 11  1  0
 10 12  2  0
 10 15  1  0
 12 16  1  0
 13 17  1  0
 14 20  2  0
 15 18  2  0
 16 19  2  0
 17 21  2  0
 18 19  1  0
 20 21  1  0
  3 23  1  0
  5 24  1  0
  6 25  1  0
  7 26  1  0
  8 27  1  0
  8 28  1  0
 13 29  1  0
 14 30  1  0
 16 31  1  0
 18 32  1  0
 20 33  1  0
 22 34  1  0
 22 35  1  0
 22 36  1  0
M  END
>  <ALOGPS_LOGP>  (1) 
2.52

>  <ALOGPS_LOGS>  (1) 
-3.34

>  <ALOGPS_SOLUBILITY>  (1) 
1.38e-01 g/l

>  <DATABASE_ID>  (1) 
DB01094

>  <DATABASE_NAME>  (1) 
drugbank

>  <DRUGBANK_ID>  (1) 
DB01094

>  <DRUG_GROUPS>  (1) 
approved

>  <EXACT_MASS>  (1) 
302.07903818

>  <FORMULA>  (1) 
C16H14O6

>  <GENERIC_NAME>  (1) 
Hesperetin

>  <INCHI_IDENTIFIER>  (1) 
InChI=1S/C16H14O6/c1-21-13-3-2-8(4-10(13)18)14-7-12(20)16-11(19)5-9(17)6-15(16)22-14/h2-6,14,17-19H,7H2,1H3/t14-/m0/s1

>  <INCHI_KEY>  (1) 
AIONOLUJZLIMTK-AWEZNQCLSA-N

>  <JCHEM_ACCEPTOR_COUNT>  (1) 
6

>  <JCHEM_AVERAGE_POLARIZABILITY>  (1) 
29.30120362796301

>  <JCHEM_BIOAVAILABILITY>  (1) 
1

>  <JCHEM_DONOR_COUNT>  (1) 
3

>  <JCHEM_FORMAL_CHARGE>  (1) 
0

>  <JCHEM_GHOSE_FILTER>  (1) 
1

>  <JCHEM_IUPAC>  (1) 
(2S)-5,7-dihydroxy-2-(3-hydroxy-4-methoxyphenyl)-3,4-dihydro-2H-1-benzopyran-4-one

>  <JCHEM_LOGP>  (1) 
2.6774367846666665

>  <JCHEM_MDDR_LIKE_RULE>  (1) 
0

>  <JCHEM_NUMBER_OF_RINGS>  (1) 
3

>  <JCHEM_PHYSIOLOGICAL_CHARGE>  (1) 
0

>  <JCHEM_PKA>  (1) 
9.7433115037746

>  <JCHEM_PKA_STRONGEST_ACIDIC>  (1) 
7.916038130451656

>  <JCHEM_PKA_STRONGEST_BASIC>  (1) 
-3.8613197275200912

>  <JCHEM_POLAR_SURFACE_AREA>  (1) 
96.22000000000001

>  <JCHEM_REFRACTIVITY>  (1) 
77.75300000000001

>  <JCHEM_ROTATABLE_BOND_COUNT>  (1) 
2

>  <JCHEM_RULE_OF_FIVE>  (1) 
1

>  <JCHEM_TRADITIONAL_IUPAC>  (1) 
hesperetin

>  <JCHEM_VEBER_RULE>  (1) 
0

>  <MOLECULAR_WEIGHT>  (1) 
302.2788

>  <SECONDARY_ACCESSION_NUMBERS>  (1) 
APRD00117

>  <SMILES>  (1) 
COC1=C(O)C=C(C=C1)[C@@H]1CC(=O)C2=C(O)C=C(O)C=C2O1

$$$$
