
     RDKit          2D

 53 56  0  0  1  0  0  0  0  0999 V2000
    9.5637   -6.0391    0.0000 C   0  0  0  0  0  0  0  0  0  0  0  0
    9.5637   -5.2141    0.0000 C   0  0  0  0  0  0  0  0  0  0  0  0
    8.8539   -4.8079    0.0000 S   0  0  0  0  0  0  0  0  0  0  0  0
    8.8539   -6.4516    0.0000 C   0  0  0  0  0  0  0  0  0  0  0  0
    8.1390   -6.0391    0.0000 N   0  0  0  0  0  0  0  0  0  0  0  0
    8.1390   -5.2141    0.0000 C   0  0  0  0  0  0  0  0  0  0  0  0
    7.3202   -5.2141    0.0000 C   0  0  0  0  0  0  0  0  0  0  0  0
    7.3202   -6.0391    0.0000 C   0  0  0  0  0  0  0  0  0  0  0  0
    8.8539   -7.2765    0.0000 C   0  0  0  0  0  0  0  0  0  0  0  0
    8.1390   -7.6894    0.0000 O   0  0  0  0  0  0  0  0  0  0  0  0
    9.5637   -7.6894    0.0000 O   0  0  0  0  0  0  0  0  0  0  0  0
    6.6052   -6.4516    0.0000 O   0  0  0  0  0  0  0  0  0  0  0  0
    6.6052   -4.8079    0.0000 N   0  0  0  0  0  0  0  0  0  0  0  0
    7.3202   -4.3953    0.0000 O   0  0  0  0  0  0  0  0  0  0  0  0
    6.6053   -3.9829    0.0000 C   0  0  0  0  0  0  0  0  0  0  0  0
    5.8899   -5.2141    0.0000 C   0  0  0  0  0  0  0  0  0  0  0  0
    5.1753   -4.8079    0.0000 C   0  0  0  0  0  0  0  0  0  0  0  0
    5.8899   -6.0391    0.0000 O   0  0  0  0  0  0  0  0  0  0  0  0
    4.9605   -4.0104    0.0000 S   0  0  0  0  0  0  0  0  0  0  0  0
    4.1634   -4.2249    0.0000 C   0  0  0  0  0  0  0  0  0  0  0  0
    4.3775   -5.0223    0.0000 S   0  0  0  0  0  0  0  0  0  0  0  0
    3.4484   -3.8124    0.0000 C   0  0  0  0  0  0  0  0  0  0  0  0
    3.4484   -2.9874    0.0000 C   0  0  0  0  0  0  0  0  0  0  0  0
    2.7334   -4.2249    0.0000 C   0  0  0  0  0  0  0  0  0  0  0  0
    2.7334   -5.0498    0.0000 N   0  0  0  0  0  0  0  0  0  0  0  0
    2.0181   -3.8124    0.0000 O   0  0  0  0  0  0  0  0  0  0  0  0
    4.1634   -2.5746    0.0000 O   0  0  0  0  0  0  0  0  0  0  0  0
    2.7334   -2.5746    0.0000 O   0  0  0  0  0  0  0  0  0  0  0  0
   10.2784   -6.4516    0.0000 C   0  0  0  0  0  0  0  0  0  0  0  0
   10.9934   -6.0391    0.0000 S   0  0  0  0  0  0  0  0  0  0  0  0
   10.9942   -5.2137    0.0000 C   0  0  0  0  0  0  0  0  0  0  0  0
   10.3288   -4.7273    0.0000 N   0  0  0  0  0  0  0  0  0  0  0  0
   10.5860   -3.9418    0.0000 N   0  0  0  0  0  0  0  0  0  0  0  0
   11.4115   -3.9426    0.0000 N   0  0  0  0  0  0  0  0  0  0  0  0
   11.6618   -4.7294    0.0000 N   0  0  0  0  0  0  0  0  0  0  0  0
   12.4472   -4.9862    0.0000 C   0  0  0  0  0  0  0  0  0  0  0  0
    0.0000    0.0000    0.0000 H   0  0  0  0  0  0  0  0  0  0  0  0
    0.0000    0.0000    0.0000 H   0  0  0  0  0  0  0  0  0  0  0  0
    0.0000    0.0000    0.0000 H   0  0  0  0  0  0  0  0  0  0  0  0
    0.0000    0.0000    0.0000 H   0  0  0  0  0  0  0  0  0  0  0  0
    0.0000    0.0000    0.0000 H   0  0  0  0  0  0  0  0  0  0  0  0
    0.0000    0.0000    0.0000 H   0  0  0  0  0  0  0  0  0  0  0  0
    0.0000    0.0000    0.0000 H   0  0  0  0  0  0  0  0  0  0  0  0
    0.0000    0.0000    0.0000 H   0  0  0  0  0  0  0  0  0  0  0  0
    0.0000    0.0000    0.0000 H   0  0  0  0  0  0  0  0  0  0  0  0
    0.0000    0.0000    0.0000 H   0  0  0  0  0  0  0  0  0  0  0  0
    0.0000    0.0000    0.0000 H   0  0  0  0  0  0  0  0  0  0  0  0
    0.0000    0.0000    0.0000 H   0  0  0  0  0  0  0  0  0  0  0  0
    0.0000    0.0000    0.0000 H   0  0  0  0  0  0  0  0  0  0  0  0
    0.0000    0.0000    0.0000 H   0  0  0  0  0  0  0  0  0  0  0  0
    0.0000    0.0000    0.0000 H   0  0  0  0  0  0  0  0  0  0  0  0
    0.0000    0.0000    0.0000 H   0  0  0  0  0  0  0  0  0  0  0  0
    0.0000    0.0000    0.0000 H   0  0  0  0  0  0  0  0  0  0  0  0
  8  5  1  0
 16 18  2  0
 17 19  1  0
  3  6  1  0
  5  4  1  0
  5  6  1  0
 19 20  1  0
 20 21  1  0
 21 17  1  0
  9 10  1  0
 20 22  2  3
  9 11  2  0
 22 23  1  0
  4  9  1  0
 22 24  1  0
 24 25  1  0
  8 12  2  0
 24 26  2  0
  1  2  1  0
  7 13  1  1
 23 27  1  0
 23 28  2  0
  1  4  2  0
  1 29  1  0
  7 14  1  0
 29 30  1  0
  2  3  1  0
 30 31  1  0
 31 32  2  0
 14 15  1  0
  6  7  1  0
 13 16  1  0
  7  8  1  0
 32 33  1  0
 33 34  2  0
 34 35  1  0
 35 31  1  0
 16 17  1  0
 35 36  1  0
  2 37  1  0
  2 38  1  0
  6 39  1  6
 10 40  1  0
 13 41  1  0
 15 42  1  0
 15 43  1  0
 15 44  1  0
 17 45  1  0
 25 46  1  0
 25 47  1  0
 27 48  1  0
 29 49  1  0
 29 50  1  0
 36 51  1  0
 36 52  1  0
 36 53  1  0
M  END
>  <ALOGPS_LOGP>  (1) 
-0.65

>  <ALOGPS_LOGS>  (1) 
-3.04

>  <ALOGPS_SOLUBILITY>  (1) 
5.21e-01 g/l

>  <DATABASE_ID>  (1) 
DB01330

>  <DATABASE_NAME>  (1) 
drugbank

>  <DRUGBANK_ID>  (1) 
DB01330

>  <DRUG_GROUPS>  (1) 
approved

>  <EXACT_MASS>  (1) 
575.002143315

>  <FORMULA>  (1) 
C17H17N7O8S4

>  <GENERIC_NAME>  (1) 
Cefotetan

>  <INCHI_IDENTIFIER>  (1) 
InChI=1S/C17H17N7O8S4/c1-23-16(20-21-22-23)34-4-5-3-33-15-17(32-2,14(31)24(15)7(5)11(29)30)19-9(26)13-35-12(36-13)6(8(18)25)10(27)28/h13,15H,3-4H2,1-2H3,(H2,18,25)(H,19,26)(H,27,28)(H,29,30)/b12-6-/t13?,15-,17+/m1/s1

>  <INCHI_KEY>  (1) 
SRZNHPXWXCNNDU-IXOPCIAXSA-N

>  <JCHEM_ACCEPTOR_COUNT>  (1) 
11

>  <JCHEM_AVERAGE_POLARIZABILITY>  (1) 
51.81011815993955

>  <JCHEM_BIOAVAILABILITY>  (1) 
0

>  <JCHEM_DONOR_COUNT>  (1) 
4

>  <JCHEM_FORMAL_CHARGE>  (1) 
0

>  <JCHEM_GHOSE_FILTER>  (1) 
0

>  <JCHEM_IUPAC>  (1) 
(6R,7S)-7-{4-[carbamoyl(carboxy)methylidene]-1,3-dithietane-2-amido}-7-methoxy-3-{[(1-methyl-1H-1,2,3,4-tetrazol-5-yl)sulfanyl]methyl}-8-oxo-5-thia-1-azabicyclo[4.2.0]oct-2-ene-2-carboxylic acid

>  <JCHEM_LOGP>  (1) 
-0.37600145566666593

>  <JCHEM_MDDR_LIKE_RULE>  (1) 
1

>  <JCHEM_NUMBER_OF_RINGS>  (1) 
4

>  <JCHEM_PHYSIOLOGICAL_CHARGE>  (1) 
-2

>  <JCHEM_PKA>  (1) 
4.06305361167874

>  <JCHEM_PKA_STRONGEST_ACIDIC>  (1) 
3.231407520417234

>  <JCHEM_PKA_STRONGEST_BASIC>  (1) 
-1.2866246915387074

>  <JCHEM_POLAR_SURFACE_AREA>  (1) 
219.92999999999995

>  <JCHEM_REFRACTIVITY>  (1) 
153.55229999999997

>  <JCHEM_ROTATABLE_BOND_COUNT>  (1) 
9

>  <JCHEM_RULE_OF_FIVE>  (1) 
0

>  <JCHEM_TRADITIONAL_IUPAC>  (1) 
cefotetan

>  <JCHEM_VEBER_RULE>  (1) 
0

>  <MOLECULAR_WEIGHT>  (1) 
575.619

>  <PRODUCTS>  (1) 
Cefotan; Cefotan Inj 2gm/vial; Cefotan Injection - 1g; Cefotan Injection - 2 G; Cefotetan; Cefotetan and Dextrose

>  <SALTS>  (1) 
Cefotetan disodium

>  <SMILES>  (1) 
[H][C@]12SCC(CSC3=NN=NN3C)=C(N1C(=O)[C@]2(NC(=O)C1SC(S1)=C(C(N)=O)C(O)=O)OC)C(O)=O

>  <SYNONYMS>  (1) 
Cefotetanum

$$$$
