1625
     RDKit          2D

 59 60  0  0  0  0  0  0  0  0999 V2000
    6.1876    0.7145    0.0000 O   0  0  0  0  0  0  0  0  0  0  0  0
    2.8876    0.7145    0.0000 N   0  0  0  0  0  0  0  0  0  0  0  0
    6.4896   -0.4125    0.0000 N   0  0  0  0  0  0  0  0  0  0  0  0
    3.7126    0.7145    0.0000 C   0  0  0  0  0  0  0  0  0  0  0  0
    2.8876    1.5395    0.0000 C   0  0  0  0  0  0  0  0  0  0  0  0
    2.0625    0.7145    0.0000 C   0  0  0  0  0  0  0  0  0  0  0  0
    4.1251    0.0000    0.0000 C   0  0  0  0  0  0  0  0  0  0  0  0
    2.8876   -0.1106    0.0000 C   0  0  0  0  0  0  0  0  0  0  0  0
    4.9501    0.0000    0.0000 C   0  0  0  0  0  0  0  0  0  0  0  0
    2.1731    1.9520    0.0000 C   0  0  0  0  0  0  0  0  0  0  0  0
    3.6020    1.9520    0.0000 C   0  0  0  0  0  0  0  0  0  0  0  0
    1.6500    1.4290    0.0000 C   0  0  0  0  0  0  0  0  0  0  0  0
    1.6500    0.0000    0.0000 C   0  0  0  0  0  0  0  0  0  0  0  0
    4.9501    0.8250    0.0000 C   0  0  0  0  0  0  0  0  0  0  0  0
    4.9501   -0.8250    0.0000 C   0  0  0  0  0  0  0  0  0  0  0  0
    5.7751    0.0000    0.0000 C   0  0  0  0  0  0  0  0  0  0  0  0
    4.2356    1.2375    0.0000 C   0  0  0  0  0  0  0  0  0  0  0  0
    5.6646   -1.2375    0.0000 C   0  0  0  0  0  0  0  0  0  0  0  0
    5.6646    1.2375    0.0000 C   0  0  0  0  0  0  0  0  0  0  0  0
    4.2356   -1.2375    0.0000 C   0  0  0  0  0  0  0  0  0  0  0  0
    4.2356    2.0625    0.0000 C   0  0  0  0  0  0  0  0  0  0  0  0
    5.6646   -2.0625    0.0000 C   0  0  0  0  0  0  0  0  0  0  0  0
    5.6646    2.0625    0.0000 C   0  0  0  0  0  0  0  0  0  0  0  0
    4.2356   -2.0625    0.0000 C   0  0  0  0  0  0  0  0  0  0  0  0
    4.9501    2.4751    0.0000 C   0  0  0  0  0  0  0  0  0  0  0  0
    4.9501   -2.4751    0.0000 C   0  0  0  0  0  0  0  0  0  0  0  0
    0.0000    0.0000    0.0000 H   0  0  0  0  0  0  0  0  0  0  0  0
    0.0000    0.0000    0.0000 H   0  0  0  0  0  0  0  0  0  0  0  0
    0.0000    0.0000    0.0000 H   0  0  0  0  0  0  0  0  0  0  0  0
    0.0000    0.0000    0.0000 H   0  0  0  0  0  0  0  0  0  0  0  0
    0.0000    0.0000    0.0000 H   0  0  0  0  0  0  0  0  0  0  0  0
    0.0000    0.0000    0.0000 H   0  0  0  0  0  0  0  0  0  0  0  0
    0.0000    0.0000    0.0000 H   0  0  0  0  0  0  0  0  0  0  0  0
    0.0000    0.0000    0.0000 H   0  0  0  0  0  0  0  0  0  0  0  0
    0.0000    0.0000    0.0000 H   0  0  0  0  0  0  0  0  0  0  0  0
    0.0000    0.0000    0.0000 H   0  0  0  0  0  0  0  0  0  0  0  0
    0.0000    0.0000    0.0000 H   0  0  0  0  0  0  0  0  0  0  0  0
    0.0000    0.0000    0.0000 H   0  0  0  0  0  0  0  0  0  0  0  0
    0.0000    0.0000    0.0000 H   0  0  0  0  0  0  0  0  0  0  0  0
    0.0000    0.0000    0.0000 H   0  0  0  0  0  0  0  0  0  0  0  0
    0.0000    0.0000    0.0000 H   0  0  0  0  0  0  0  0  0  0  0  0
    0.0000    0.0000    0.0000 H   0  0  0  0  0  0  0  0  0  0  0  0
    0.0000    0.0000    0.0000 H   0  0  0  0  0  0  0  0  0  0  0  0
    0.0000    0.0000    0.0000 H   0  0  0  0  0  0  0  0  0  0  0  0
    0.0000    0.0000    0.0000 H   0  0  0  0  0  0  0  0  0  0  0  0
    0.0000    0.0000    0.0000 H   0  0  0  0  0  0  0  0  0  0  0  0
    0.0000    0.0000    0.0000 H   0  0  0  0  0  0  0  0  0  0  0  0
    0.0000    0.0000    0.0000 H   0  0  0  0  0  0  0  0  0  0  0  0
    0.0000    0.0000    0.0000 H   0  0  0  0  0  0  0  0  0  0  0  0
    0.0000    0.0000    0.0000 H   0  0  0  0  0  0  0  0  0  0  0  0
    0.0000    0.0000    0.0000 H   0  0  0  0  0  0  0  0  0  0  0  0
    0.0000    0.0000    0.0000 H   0  0  0  0  0  0  0  0  0  0  0  0
    0.0000    0.0000    0.0000 H   0  0  0  0  0  0  0  0  0  0  0  0
    0.0000    0.0000    0.0000 H   0  0  0  0  0  0  0  0  0  0  0  0
    0.0000    0.0000    0.0000 H   0  0  0  0  0  0  0  0  0  0  0  0
    0.0000    0.0000    0.0000 H   0  0  0  0  0  0  0  0  0  0  0  0
    0.0000    0.0000    0.0000 H   0  0  0  0  0  0  0  0  0  0  0  0
    0.0000    0.0000    0.0000 H   0  0  0  0  0  0  0  0  0  0  0  0
    0.0000    0.0000    0.0000 H   0  0  0  0  0  0  0  0  0  0  0  0
  1 16  2  0
  2  4  1  0
  2  5  1  0
  2  6  1  0
  2  8  1  0
  3 16  1  0
  4  7  1  0
  5 10  1  0
  5 11  1  0
  6 12  1  0
  6 13  1  0
  7  9  1  0
  9 14  1  0
  9 15  1  0
  9 16  1  0
 14 17  2  0
 14 19  1  0
 15 18  2  0
 15 20  1  0
 17 21  1  0
 18 22  1  0
 19 23  2  0
 20 24  2  0
 21 25  2  0
 22 26  2  0
 23 25  1  0
 24 26  1  0
  3 27  1  0
  3 28  1  0
  4 29  1  0
  4 30  1  0
  5 31  1  0
  6 32  1  0
  7 33  1  0
  7 34  1  0
  8 35  1  0
  8 36  1  0
  8 37  1  0
 10 38  1  0
 10 39  1  0
 10 40  1  0
 11 41  1  0
 11 42  1  0
 11 43  1  0
 12 44  1  0
 12 45  1  0
 12 46  1  0
 13 47  1  0
 13 48  1  0
 13 49  1  0
 17 50  1  0
 18 51  1  0
 19 52  1  0
 20 53  1  0
 21 54  1  0
 22 55  1  0
 23 56  1  0
 24 57  1  0
 25 58  1  0
 26 59  1  0
M  CHG  1   2   1
M  END
>  <ALOGPS_LOGP>  (1) 
2.27

>  <ALOGPS_LOGS>  (1) 
-6.96

>  <ALOGPS_SOLUBILITY>  (1) 
4.24e-05 g/l

>  <DATABASE_ID>  (1) 
DB01625

>  <DATABASE_NAME>  (1) 
drugbank

>  <DRUGBANK_ID>  (1) 
DB01625

>  <DRUG_GROUPS>  (1) 
approved; vet_approved

>  <EXACT_MASS>  (1) 
353.259288688

>  <FORMULA>  (1) 
C23H33N2O

>  <GENERIC_NAME>  (1) 
Isopropamide

>  <INCHI_IDENTIFIER>  (1) 
InChI=1S/C23H32N2O/c1-18(2)25(5,19(3)4)17-16-23(22(24)26,20-12-8-6-9-13-20)21-14-10-7-11-15-21/h6-15,18-19H,16-17H2,1-5H3,(H-,24,26)/p+1

>  <INCHI_KEY>  (1) 
JTPUMZTWMWIVPA-UHFFFAOYSA-O

>  <JCHEM_ACCEPTOR_COUNT>  (1) 
1

>  <JCHEM_AVERAGE_POLARIZABILITY>  (1) 
41.27910866295463

>  <JCHEM_BIOAVAILABILITY>  (1) 
1

>  <JCHEM_DONOR_COUNT>  (1) 
1

>  <JCHEM_FORMAL_CHARGE>  (1) 
1

>  <JCHEM_GHOSE_FILTER>  (1) 
1

>  <JCHEM_IUPAC>  (1) 
(3-carbamoyl-3,3-diphenylpropyl)(methyl)bis(propan-2-yl)azanium

>  <JCHEM_LOGP>  (1) 
0.13792196952825317

>  <JCHEM_MDDR_LIKE_RULE>  (1) 
0

>  <JCHEM_NUMBER_OF_RINGS>  (1) 
2

>  <JCHEM_PHYSIOLOGICAL_CHARGE>  (1) 
1

>  <JCHEM_PKA_STRONGEST_ACIDIC>  (1) 
16.31484423473715

>  <JCHEM_PKA_STRONGEST_BASIC>  (1) 
-3.336031877848176

>  <JCHEM_POLAR_SURFACE_AREA>  (1) 
43.09

>  <JCHEM_REFRACTIVITY>  (1) 
120.74270000000003

>  <JCHEM_ROTATABLE_BOND_COUNT>  (1) 
8

>  <JCHEM_RULE_OF_FIVE>  (1) 
1

>  <JCHEM_TRADITIONAL_IUPAC>  (1) 
isopropamide

>  <JCHEM_VEBER_RULE>  (1) 
0

>  <MOLECULAR_WEIGHT>  (1) 
353.5209

>  <PRODUCTS>  (1) 
Stelabid Forte; Stelabid No 1; Stelabid No 2

>  <SALTS>  (1) 
Isopropamide chloride; Isopropamide iodide

>  <SMILES>  (1) 
CC(C)[N+](C)(CCC(C(N)=O)(C1=CC=CC=C1)C1=CC=CC=C1)C(C)C

$$$$
