
     RDKit          2D

117121  0  0  0  0  0  0  0  0999 V2000
    1.0895   -0.5562    0.0000 C   0  0  0  0  0  0  0  0  0  0  0  0
    1.0895   -1.3813    0.0000 C   0  0  0  0  0  0  0  0  0  0  0  0
   -0.3395   -1.3813    0.0000 C   0  0  0  0  0  0  0  0  0  0  0  0
    0.3750   -1.7938    0.0000 C   0  0  0  0  0  0  0  0  0  0  0  0
    2.5184   -1.3813    0.0000 C   0  0  0  0  0  0  0  0  0  0  0  0
    3.2329   -1.7938    0.0000 C   0  0  0  0  0  0  0  0  0  0  0  0
    3.9473   -1.3813    0.0000 N   0  0  0  0  0  0  0  0  0  0  0  0
    5.3763   -1.3812    0.0000 C   0  0  0  0  0  0  0  0  0  0  0  0
    4.6618   -2.6188    0.0000 C   0  0  0  0  0  0  0  0  0  0  0  0
    5.3763   -3.0313    0.0000 C   0  0  0  0  0  0  0  0  0  0  0  0
    6.0907   -1.7938    0.0000 C   0  0  0  0  0  0  0  0  0  0  0  0
    4.6618   -1.7938    0.0000 N   0  0  0  0  0  0  0  0  0  0  0  0
    6.0907   -2.6188    0.0000 N   0  0  0  0  0  0  0  0  0  0  0  0
    6.8052   -3.0313    0.0000 C   0  0  0  0  0  0  0  0  0  0  0  0
    2.5184   -0.5562    0.0000 C   0  0  0  0  0  0  0  0  0  0  0  0
    3.2329   -0.1437    0.0000 N   0  0  0  0  0  0  0  0  0  0  0  0
    3.9473    1.9188    0.0000 C   0  0  0  0  0  0  0  0  0  0  0  0
    3.2329    2.3313    0.0000 C   0  0  0  0  0  0  0  0  0  0  0  0
    2.5184    1.9188    0.0000 C   0  0  0  0  0  0  0  0  0  0  0  0
   -1.7684   -1.3812    0.0000 C   0  0  0  0  0  0  0  0  0  0  0  0
   -2.4829   -1.7937    0.0000 C   0  0  0  0  0  0  0  0  0  0  0  0
   -2.4829   -2.6187    0.0000 O   0  0  0  0  0  0  0  0  0  0  0  0
    3.2329    0.6813    0.0000 C   0  0  0  0  0  0  0  0  0  0  0  0
    2.5184    1.0938    0.0000 O   0  0  0  0  0  0  0  0  0  0  0  0
    1.8039   -0.1437    0.0000 C   0  0  0  0  0  0  0  0  0  0  0  0
    1.8039    0.6813    0.0000 O   0  0  0  0  0  0  0  0  0  0  0  0
    0.3750   -0.1437    0.0000 C   0  0  0  0  0  0  0  0  0  0  0  0
    0.3750    0.6813    0.0000 O   0  0  0  0  0  0  0  0  0  0  0  0
   -0.3395   -0.5562    0.0000 C   0  0  0  0  0  0  0  0  0  0  0  0
   -0.5530    0.2406    0.0000 C   0  0  0  0  0  0  0  0  0  0  0  0
   -1.0539   -1.7938    0.0000 O   0  0  0  0  0  0  0  0  0  0  0  0
    0.3750   -2.6188    0.0000 C   0  0  0  0  0  0  0  0  0  0  0  0
    0.9583   -3.2021    0.0000 O   0  0  0  0  0  0  0  0  0  0  0  0
   -1.0539   -2.6188    0.0000 C   0  0  0  0  0  0  0  0  0  0  0  0
   -1.0539   -3.4438    0.0000 C   0  0  0  0  0  0  0  0  0  0  0  0
   -1.0540   -0.1437    0.0000 C   0  0  0  0  0  0  0  0  0  0  0  0
   -1.7684    0.2688    0.0000 C   0  0  0  0  0  0  0  0  0  0  0  0
   -1.7684   -0.5562    0.0000 C   0  0  0  0  0  0  0  0  0  0  0  0
   -2.4829   -0.1437    0.0000 O   0  0  0  0  0  0  0  0  0  0  0  0
   -3.1974   -0.5562    0.0000 C   0  0  0  0  0  0  0  0  0  0  0  0
   -1.0540    0.6813    0.0000 C   0  0  0  0  0  0  0  0  0  0  0  0
   -1.7684    1.0938    0.0000 O   0  0  0  0  0  0  0  0  0  0  0  0
   -3.3079    0.6813    0.0000 C   0  0  0  0  0  0  0  0  0  0  0  0
   -2.5934    1.0938    0.0000 C   0  0  0  0  0  0  0  0  0  0  0  0
   -2.8070    1.8906    0.0000 O   0  0  0  0  0  0  0  0  0  0  0  0
   -0.3395    1.0938    0.0000 C   0  0  0  0  0  0  0  0  0  0  0  0
   -1.0540    1.5063    0.0000 C   0  0  0  0  0  0  0  0  0  0  0  0
   -0.3395    1.9188    0.0000 C   0  0  0  0  0  0  0  0  0  0  0  0
   -1.0540    2.3313    0.0000 O   0  0  0  0  0  0  0  0  0  0  0  0
    0.3750    2.3313    0.0000 C   0  0  0  0  0  0  0  0  0  0  0  0
    0.3750    3.1563    0.0000 C   0  0  0  0  0  0  0  0  0  0  0  0
    1.0895    1.9188    0.0000 C   0  0  0  0  0  0  0  0  0  0  0  0
    1.0895    1.0938    0.0000 O   0  0  0  0  0  0  0  0  0  0  0  0
    1.8039    2.3313    0.0000 C   0  0  0  0  0  0  0  0  0  0  0  0
    1.8039    3.1563    0.0000 C   0  0  0  0  0  0  0  0  0  0  0  0
    3.9473    1.0938    0.0000 C   0  0  0  0  0  0  0  0  0  0  0  0
    4.6618    0.6813    0.0000 C   0  0  0  0  0  0  0  0  0  0  0  0
    1.8039   -1.7938    0.0000 C   0  0  0  0  0  0  0  0  0  0  0  0
    1.8039   -2.6188    0.0000 O   0  0  0  0  0  0  0  0  0  0  0  0
    0.0000    0.0000    0.0000 H   0  0  0  0  0  0  0  0  0  0  0  0
    0.0000    0.0000    0.0000 H   0  0  0  0  0  0  0  0  0  0  0  0
    0.0000    0.0000    0.0000 H   0  0  0  0  0  0  0  0  0  0  0  0
    0.0000    0.0000    0.0000 H   0  0  0  0  0  0  0  0  0  0  0  0
    0.0000    0.0000    0.0000 H   0  0  0  0  0  0  0  0  0  0  0  0
    0.0000    0.0000    0.0000 H   0  0  0  0  0  0  0  0  0  0  0  0
    0.0000    0.0000    0.0000 H   0  0  0  0  0  0  0  0  0  0  0  0
    0.0000    0.0000    0.0000 H   0  0  0  0  0  0  0  0  0  0  0  0
    0.0000    0.0000    0.0000 H   0  0  0  0  0  0  0  0  0  0  0  0
    0.0000    0.0000    0.0000 H   0  0  0  0  0  0  0  0  0  0  0  0
    0.0000    0.0000    0.0000 H   0  0  0  0  0  0  0  0  0  0  0  0
    0.0000    0.0000    0.0000 H   0  0  0  0  0  0  0  0  0  0  0  0
    0.0000    0.0000    0.0000 H   0  0  0  0  0  0  0  0  0  0  0  0
    0.0000    0.0000    0.0000 H   0  0  0  0  0  0  0  0  0  0  0  0
    0.0000    0.0000    0.0000 H   0  0  0  0  0  0  0  0  0  0  0  0
    0.0000    0.0000    0.0000 H   0  0  0  0  0  0  0  0  0  0  0  0
    0.0000    0.0000    0.0000 H   0  0  0  0  0  0  0  0  0  0  0  0
    0.0000    0.0000    0.0000 H   0  0  0  0  0  0  0  0  0  0  0  0
    0.0000    0.0000    0.0000 H   0  0  0  0  0  0  0  0  0  0  0  0
    0.0000    0.0000    0.0000 H   0  0  0  0  0  0  0  0  0  0  0  0
    0.0000    0.0000    0.0000 H   0  0  0  0  0  0  0  0  0  0  0  0
    0.0000    0.0000    0.0000 H   0  0  0  0  0  0  0  0  0  0  0  0
    0.0000    0.0000    0.0000 H   0  0  0  0  0  0  0  0  0  0  0  0
    0.0000    0.0000    0.0000 H   0  0  0  0  0  0  0  0  0  0  0  0
    0.0000    0.0000    0.0000 H   0  0  0  0  0  0  0  0  0  0  0  0
    0.0000    0.0000    0.0000 H   0  0  0  0  0  0  0  0  0  0  0  0
    0.0000    0.0000    0.0000 H   0  0  0  0  0  0  0  0  0  0  0  0
    0.0000    0.0000    0.0000 H   0  0  0  0  0  0  0  0  0  0  0  0
    0.0000    0.0000    0.0000 H   0  0  0  0  0  0  0  0  0  0  0  0
    0.0000    0.0000    0.0000 H   0  0  0  0  0  0  0  0  0  0  0  0
    0.0000    0.0000    0.0000 H   0  0  0  0  0  0  0  0  0  0  0  0
    0.0000    0.0000    0.0000 H   0  0  0  0  0  0  0  0  0  0  0  0
    0.0000    0.0000    0.0000 H   0  0  0  0  0  0  0  0  0  0  0  0
    0.0000    0.0000    0.0000 H   0  0  0  0  0  0  0  0  0  0  0  0
    0.0000    0.0000    0.0000 H   0  0  0  0  0  0  0  0  0  0  0  0
    0.0000    0.0000    0.0000 H   0  0  0  0  0  0  0  0  0  0  0  0
    0.0000    0.0000    0.0000 H   0  0  0  0  0  0  0  0  0  0  0  0
    0.0000    0.0000    0.0000 H   0  0  0  0  0  0  0  0  0  0  0  0
    0.0000    0.0000    0.0000 H   0  0  0  0  0  0  0  0  0  0  0  0
    0.0000    0.0000    0.0000 H   0  0  0  0  0  0  0  0  0  0  0  0
    0.0000    0.0000    0.0000 H   0  0  0  0  0  0  0  0  0  0  0  0
    0.0000    0.0000    0.0000 H   0  0  0  0  0  0  0  0  0  0  0  0
    0.0000    0.0000    0.0000 H   0  0  0  0  0  0  0  0  0  0  0  0
    0.0000    0.0000    0.0000 H   0  0  0  0  0  0  0  0  0  0  0  0
    0.0000    0.0000    0.0000 H   0  0  0  0  0  0  0  0  0  0  0  0
    0.0000    0.0000    0.0000 H   0  0  0  0  0  0  0  0  0  0  0  0
    0.0000    0.0000    0.0000 H   0  0  0  0  0  0  0  0  0  0  0  0
    0.0000    0.0000    0.0000 H   0  0  0  0  0  0  0  0  0  0  0  0
    0.0000    0.0000    0.0000 H   0  0  0  0  0  0  0  0  0  0  0  0
    0.0000    0.0000    0.0000 H   0  0  0  0  0  0  0  0  0  0  0  0
    0.0000    0.0000    0.0000 H   0  0  0  0  0  0  0  0  0  0  0  0
    0.0000    0.0000    0.0000 H   0  0  0  0  0  0  0  0  0  0  0  0
    0.0000    0.0000    0.0000 H   0  0  0  0  0  0  0  0  0  0  0  0
    0.0000    0.0000    0.0000 H   0  0  0  0  0  0  0  0  0  0  0  0
    0.0000    0.0000    0.0000 H   0  0  0  0  0  0  0  0  0  0  0  0
    0.0000    0.0000    0.0000 H   0  0  0  0  0  0  0  0  0  0  0  0
    0.0000    0.0000    0.0000 H   0  0  0  0  0  0  0  0  0  0  0  0
    0.0000    0.0000    0.0000 H   0  0  0  0  0  0  0  0  0  0  0  0
 27 29  1  0
 27  1  2  0
 29  3  2  0
  4  2  2  0
 25  1  1  0
  2  1  1  0
  2 58  1  0
 25 15  2  0
 58  5  2  0
  5 15  1  0
  3 31  1  0
  3  4  1  0
  4 32  1  0
 32 34  1  0
 34 31  1  0
  5  6  1  0
  6  7  2  0
  7 12  1  0
  8 12  1  0
 12  9  1  0
  8 11  1  0
  9 10  1  0
 10 13  1  0
 13 11  1  0
 13 14  1  0
 15 16  1  0
 16 23  1  0
 23 56  1  0
 56 17  2  0
 17 18  1  0
 18 19  2  0
 19 54  1  0
 54 52  1  0
 52 50  1  0
 50 48  1  0
 48 46  1  0
 46 41  1  0
 41 36  1  0
 36 38  1  0
 38 20  1  0
 20 21  2  0
 21 22  1  0
 34 22  1  0
 23 24  2  0
 25 26  1  0
 27 28  1  0
 29 30  1  0
 32 33  2  0
 34 35  1  6
 36 37  1  6
 38 39  1  1
 39 40  1  0
 41 42  1  6
 42 44  1  0
 44 43  1  0
 44 45  2  0
 46 47  1  1
 48 49  1  1
 50 51  1  1
 52 53  1  6
 54 55  1  6
 56 57  1  0
 58 59  1  0
  6 60  1  0
  8 61  1  0
  8 62  1  0
  9 63  1  0
  9 64  1  0
 10 65  1  0
 10 66  1  0
 11 67  1  0
 11 68  1  0
 14 69  1  0
 14 70  1  0
 14 71  1  0
 16 72  1  0
 17 73  1  0
 18 74  1  0
 19 75  1  0
 20 76  1  0
 21 77  1  0
 26 78  1  0
 28 79  1  0
 30 80  1  0
 30 81  1  0
 30 82  1  0
 35 83  1  0
 35 84  1  0
 35 85  1  0
 36 86  1  0
 37 87  1  0
 37 88  1  0
 37 89  1  0
 38 90  1  0
 40 91  1  0
 40 92  1  0
 40 93  1  0
 41 94  1  0
 43 95  1  0
 43 96  1  0
 43 97  1  0
 46 98  1  0
 47 99  1  0
 47100  1  0
 47101  1  0
 48102  1  0
 49103  1  0
 50104  1  0
 51105  1  0
 51106  1  0
 51107  1  0
 52108  1  0
 53109  1  0
 54110  1  0
 55111  1  0
 55112  1  0
 55113  1  0
 57114  1  0
 57115  1  0
 57116  1  0
 59117  1  0
M  END
>  <ALOGPS_LOGP>  (1) 
3.85

>  <ALOGPS_LOGS>  (1) 
-4.30

>  <ALOGPS_SOLUBILITY>  (1) 
4.13e-02 g/l

>  <DATABASE_ID>  (1) 
DB01045

>  <DATABASE_NAME>  (1) 
drugbank

>  <DRUGBANK_ID>  (1) 
DB01045

>  <DRUG_GROUPS>  (1) 
approved

>  <EXACT_MASS>  (1) 
822.40512334

>  <FORMULA>  (1) 
C43H58N4O12

>  <GENERIC_NAME>  (1) 
Rifampicin

>  <INCHI_IDENTIFIER>  (1) 
InChI=1S/C43H58N4O12/c1-21-12-11-13-22(2)42(55)45-33-28(20-44-47-17-15-46(9)16-18-47)37(52)30-31(38(33)53)36(51)26(6)40-32(30)41(54)43(8,59-40)57-19-14-29(56-10)23(3)39(58-27(7)48)25(5)35(50)24(4)34(21)49/h11-14,19-21,23-25,29,34-35,39,49-53H,15-18H2,1-10H3,(H,45,55)/b12-11+,19-14+,22-13-,44-20+/t21-,23+,24+,25+,29-,34-,35+,39+,43-/m0/s1

>  <INCHI_KEY>  (1) 
JQXXHWHPUNPDRT-WLSIYKJHSA-N

>  <INTERNATIONAL_BRANDS>  (1) 
Rifadine; Rifaldin; Rifoldin; Rimactan; Rimactane; Rofact; Tubocin

>  <JCHEM_ACCEPTOR_COUNT>  (1) 
14

>  <JCHEM_AVERAGE_POLARIZABILITY>  (1) 
86.457738352645

>  <JCHEM_BIOAVAILABILITY>  (1) 
0

>  <JCHEM_DONOR_COUNT>  (1) 
6

>  <JCHEM_FORMAL_CHARGE>  (1) 
0

>  <JCHEM_GHOSE_FILTER>  (1) 
0

>  <JCHEM_IUPAC>  (1) 
(7S,9E,11S,12R,13S,14R,15R,16R,17S,18S,19E,21Z)-2,15,17,27,29-pentahydroxy-11-methoxy-3,7,12,14,16,18,22-heptamethyl-26-[(1E)-[(4-methylpiperazin-1-yl)imino]methyl]-6,23-dioxo-8,30-dioxa-24-azatetracyclo[23.3.1.1⁴,⁷.0⁵,²⁸]triaconta-1(29),2,4,9,19,21,25,27-octaen-13-yl acetate

>  <JCHEM_LOGP>  (1) 
2.7698967809531

>  <JCHEM_MDDR_LIKE_RULE>  (1) 
0

>  <JCHEM_NUMBER_OF_RINGS>  (1) 
5

>  <JCHEM_PHYSIOLOGICAL_CHARGE>  (1) 
1

>  <JCHEM_PKA>  (1) 
8.249142706180198

>  <JCHEM_PKA_STRONGEST_ACIDIC>  (1) 
6.898451095989707

>  <JCHEM_PKA_STRONGEST_BASIC>  (1) 
7.531724009298481

>  <JCHEM_POLAR_SURFACE_AREA>  (1) 
220.14999999999995

>  <JCHEM_REFRACTIVITY>  (1) 
225.58280000000002

>  <JCHEM_ROTATABLE_BOND_COUNT>  (1) 
5

>  <JCHEM_RULE_OF_FIVE>  (1) 
0

>  <JCHEM_TRADITIONAL_IUPAC>  (1) 
(7S,9E,11S,12R,13S,14R,15R,16R,17S,18S,19E,21Z)-2,15,17,27,29-pentahydroxy-11-methoxy-3,7,12,14,16,18,22-heptamethyl-26-[(1E)-[(4-methylpiperazin-1-yl)imino]methyl]-6,23-dioxo-8,30-dioxa-24-azatetracyclo[23.3.1.1⁴,⁷.0⁵,²⁸]triaconta-1(29),2,4,9,19,21,25,27-octaen-13-yl acetate

>  <JCHEM_VEBER_RULE>  (1) 
0

>  <MOLECULAR_WEIGHT>  (1) 
822.9402

>  <PRODUCTS>  (1) 
IsonaRif; Rifadin; Rifadin Cap 300mg; Rifadin IV; Rifadin IV NOVAPLUS; Rifamate; Rifampin; Rifater; Rofact 150mg; Rofact 300mg

>  <SALTS>  (1) 
Rifampicin sodium

>  <SECONDARY_ACCESSION_NUMBERS>  (1) 
APRD00207; EXPT02777

>  <SMILES>  (1) 
CO[C@H]1\C=C\O[C@@]2(C)OC3=C(C2=O)C2=C(O)C(\C=N\N4CCN(C)CC4)=C(NC(=O)\C(C)=C/C=C/[C@H](C)[C@H](O)[C@@H](C)[C@@H](O)[C@@H](C)[C@H](OC(C)=O)[C@@H]1C)C(O)=C2C(O)=C3C

>  <SYNONYMS>  (1) 
3-(((4-Methyl-1-piperazinyl)imino)methyl)rifamycin SV; RFP; Rifampicina; Rifampicinum; Rifampin

$$$$
