
     RDKit          2D

 58 59  0  0  0  0  0  0  0  0999 V2000
   -1.8005   -0.8684    0.0000 O   0  0  0  0  0  0  0  0  0  0  0  0
   -1.2498    2.1606    0.0000 O   0  0  0  0  0  0  0  0  0  0  0  0
    5.2958   -3.0185    0.0000 O   0  0  0  0  0  0  0  0  0  0  0  0
    5.2958   -1.5887    0.0000 O   0  0  0  0  0  0  0  0  0  0  0  0
    0.3071   -0.4554    0.0000 C   0  0  0  0  0  0  0  0  0  0  0  0
    0.3071   -1.2815    0.0000 C   0  0  0  0  0  0  0  0  0  0  0  0
   -0.4766   -0.2012    0.0000 C   0  0  0  0  0  0  0  0  0  0  0  0
   -0.4766   -1.5358    0.0000 C   0  0  0  0  0  0  0  0  0  0  0  0
   -0.9638   -0.8684    0.0000 C   0  0  0  0  0  0  0  0  0  0  0  0
    1.0909   -0.2012    0.0000 C   0  0  0  0  0  0  0  0  0  0  0  0
    1.0909   -1.5358    0.0000 C   0  0  0  0  0  0  0  0  0  0  0  0
    1.5675   -0.8684    0.0000 C   0  0  0  0  0  0  0  0  0  0  0  0
   -0.7414    0.5931    0.0000 C   0  0  0  0  0  0  0  0  0  0  0  0
    2.4042   -0.8684    0.0000 C   0  0  0  0  0  0  0  0  0  0  0  0
   -1.5463    0.7626    0.0000 C   0  0  0  0  0  0  0  0  0  0  0  0
    2.8173   -1.5887    0.0000 C   0  0  0  0  0  0  0  0  0  0  0  0
   -1.8005    1.5463    0.0000 C   0  0  0  0  0  0  0  0  0  0  0  0
    3.6435   -1.5887    0.0000 C   0  0  0  0  0  0  0  0  0  0  0  0
   -2.6161    1.7158    0.0000 C   0  0  0  0  0  0  0  0  0  0  0  0
    4.0565   -2.2983    0.0000 C   0  0  0  0  0  0  0  0  0  0  0  0
   -2.8702    2.5101    0.0000 C   0  0  0  0  0  0  0  0  0  0  0  0
   -3.1668    1.1015    0.0000 C   0  0  0  0  0  0  0  0  0  0  0  0
    4.8827   -2.2983    0.0000 C   0  0  0  0  0  0  0  0  0  0  0  0
   -3.6753    2.6797    0.0000 C   0  0  0  0  0  0  0  0  0  0  0  0
   -4.4908    2.8490    0.0000 C   0  0  0  0  0  0  0  0  0  0  0  0
   -5.2958    3.0185    0.0000 C   0  0  0  0  0  0  0  0  0  0  0  0
    0.0000    0.0000    0.0000 H   0  0  0  0  0  0  0  0  0  0  0  0
    0.0000    0.0000    0.0000 H   0  0  0  0  0  0  0  0  0  0  0  0
    0.0000    0.0000    0.0000 H   0  0  0  0  0  0  0  0  0  0  0  0
    0.0000    0.0000    0.0000 H   0  0  0  0  0  0  0  0  0  0  0  0
    0.0000    0.0000    0.0000 H   0  0  0  0  0  0  0  0  0  0  0  0
    0.0000    0.0000    0.0000 H   0  0  0  0  0  0  0  0  0  0  0  0
    0.0000    0.0000    0.0000 H   0  0  0  0  0  0  0  0  0  0  0  0
    0.0000    0.0000    0.0000 H   0  0  0  0  0  0  0  0  0  0  0  0
    0.0000    0.0000    0.0000 H   0  0  0  0  0  0  0  0  0  0  0  0
    0.0000    0.0000    0.0000 H   0  0  0  0  0  0  0  0  0  0  0  0
    0.0000    0.0000    0.0000 H   0  0  0  0  0  0  0  0  0  0  0  0
    0.0000    0.0000    0.0000 H   0  0  0  0  0  0  0  0  0  0  0  0
    0.0000    0.0000    0.0000 H   0  0  0  0  0  0  0  0  0  0  0  0
    0.0000    0.0000    0.0000 H   0  0  0  0  0  0  0  0  0  0  0  0
    0.0000    0.0000    0.0000 H   0  0  0  0  0  0  0  0  0  0  0  0
    0.0000    0.0000    0.0000 H   0  0  0  0  0  0  0  0  0  0  0  0
    0.0000    0.0000    0.0000 H   0  0  0  0  0  0  0  0  0  0  0  0
    0.0000    0.0000    0.0000 H   0  0  0  0  0  0  0  0  0  0  0  0
    0.0000    0.0000    0.0000 H   0  0  0  0  0  0  0  0  0  0  0  0
    0.0000    0.0000    0.0000 H   0  0  0  0  0  0  0  0  0  0  0  0
    0.0000    0.0000    0.0000 H   0  0  0  0  0  0  0  0  0  0  0  0
    0.0000    0.0000    0.0000 H   0  0  0  0  0  0  0  0  0  0  0  0
    0.0000    0.0000    0.0000 H   0  0  0  0  0  0  0  0  0  0  0  0
    0.0000    0.0000    0.0000 H   0  0  0  0  0  0  0  0  0  0  0  0
    0.0000    0.0000    0.0000 H   0  0  0  0  0  0  0  0  0  0  0  0
    0.0000    0.0000    0.0000 H   0  0  0  0  0  0  0  0  0  0  0  0
    0.0000    0.0000    0.0000 H   0  0  0  0  0  0  0  0  0  0  0  0
    0.0000    0.0000    0.0000 H   0  0  0  0  0  0  0  0  0  0  0  0
    0.0000    0.0000    0.0000 H   0  0  0  0  0  0  0  0  0  0  0  0
    0.0000    0.0000    0.0000 H   0  0  0  0  0  0  0  0  0  0  0  0
    0.0000    0.0000    0.0000 H   0  0  0  0  0  0  0  0  0  0  0  0
    0.0000    0.0000    0.0000 H   0  0  0  0  0  0  0  0  0  0  0  0
  9  1  1  6
 17  2  1  6
  3 23  1  0
  4 23  2  0
  5  6  1  0
  5  7  1  0
  5 10  1  0
  6  8  1  0
  6 11  1  0
  7  9  1  0
  7 13  1  6
  8  9  1  0
 10 12  1  0
 11 12  1  0
 12 14  2  0
 13 15  2  0
 14 16  1  0
 15 17  1  0
 16 18  1  0
 17 19  1  0
 18 20  1  0
 19 21  1  0
 19 22  1  0
 20 23  1  0
 21 24  1  0
 24 25  3  0
 25 26  1  0
  1 27  1  0
  2 28  1  0
  3 29  1  0
  5 30  1  6
  6 31  1  6
  7 32  1  0
  8 33  1  0
  8 34  1  0
  9 35  1  0
 10 36  1  0
 10 37  1  0
 11 38  1  0
 11 39  1  0
 13 40  1  0
 14 41  1  0
 15 42  1  0
 16 43  1  0
 16 44  1  0
 17 45  1  0
 18 46  1  0
 18 47  1  0
 19 48  1  0
 20 49  1  0
 20 50  1  0
 21 51  1  0
 21 52  1  0
 22 53  1  0
 22 54  1  0
 22 55  1  0
 26 56  1  0
 26 57  1  0
 26 58  1  0
M  END
>  <ALOGPS_LOGP>  (1) 
4.22

>  <ALOGPS_LOGS>  (1) 
-4.62

>  <ALOGPS_SOLUBILITY>  (1) 
8.74e-03 g/l

>  <DATABASE_ID>  (1) 
DB01088

>  <DATABASE_NAME>  (1) 
drugbank

>  <DRUGBANK_ID>  (1) 
DB01088

>  <DRUG_GROUPS>  (1) 
approved; investigational

>  <EXACT_MASS>  (1) 
360.23005951

>  <FORMULA>  (1) 
C22H32O4

>  <GENERIC_NAME>  (1) 
Iloprost

>  <INCHI_IDENTIFIER>  (1) 
InChI=1S/C22H32O4/c1-3-4-7-15(2)20(23)11-10-18-19-13-16(8-5-6-9-22(25)26)12-17(19)14-21(18)24/h8,10-11,15,17-21,23-24H,5-7,9,12-14H2,1-2H3,(H,25,26)/b11-10+,16-8+/t15?,17-,18+,19-,20+,21+/m0/s1

>  <INCHI_KEY>  (1) 
HIFJCPQKFCZDDL-ACWOEMLNSA-N

>  <JCHEM_ACCEPTOR_COUNT>  (1) 
4

>  <JCHEM_ATOM_COUNT>  (1) 
58

>  <JCHEM_AVERAGE_POLARIZABILITY>  (1) 
42.68198784358218

>  <JCHEM_BIOAVAILABILITY>  (1) 
1

>  <JCHEM_DONOR_COUNT>  (1) 
3

>  <JCHEM_FORMAL_CHARGE>  (1) 
0

>  <JCHEM_GHOSE_FILTER>  (1) 
1

>  <JCHEM_IUPAC>  (1) 
5-[(2E,3aS,4R,5R,6aS)-5-hydroxy-4-[(1E,3S)-3-hydroxy-4-methyloct-1-en-6-yn-1-yl]-octahydropentalen-2-ylidene]pentanoic acid

>  <JCHEM_LOGP>  (1) 
3.5643785116666664

>  <JCHEM_MDDR_LIKE_RULE>  (1) 
0

>  <JCHEM_NUMBER_OF_RINGS>  (1) 
2

>  <JCHEM_PHYSIOLOGICAL_CHARGE>  (1) 
-1

>  <JCHEM_PKA>  (1) 
18.153434881599377

>  <JCHEM_PKA_STRONGEST_ACIDIC>  (1) 
4.6648157743510605

>  <JCHEM_PKA_STRONGEST_BASIC>  (1) 
-0.8733211011361691

>  <JCHEM_POLAR_SURFACE_AREA>  (1) 
77.75999999999999

>  <JCHEM_REFRACTIVITY>  (1) 
105.1822

>  <JCHEM_ROTATABLE_BOND_COUNT>  (1) 
9

>  <JCHEM_RULE_OF_FIVE>  (1) 
1

>  <JCHEM_TRADITIONAL_IUPAC>  (1) 
iloprostum

>  <JCHEM_VEBER_RULE>  (1) 
0

>  <MOLECULAR_WEIGHT>  (1) 
360.494

>  <PRODUCTS>  (1) 
Ventavis

>  <SECONDARY_ACCESSION_NUMBERS>  (1) 
APRD01027

>  <SMILES>  (1) 
[H][C@]12C[C@@H](O)[C@H](\C=C\[C@@H](O)C(C)CC#CC)[C@@]1([H])C\C(C2)=C\CCCC(O)=O

$$$$
