
     RDKit          2D

 60 61  0  0  1  0  0  0  0  0999 V2000
    2.1434   -0.4125    0.0000 C   0  0  0  0  0  0  0  0  0  0  0  0
    5.2101   -6.4143    0.0000 C   0  0  0  0  0  0  0  0  0  0  0  0
    1.9605   -4.4120    0.0000 C   0  0  0  0  0  0  0  0  0  0  0  0
    8.4920   -6.0694    0.0000 C   0  0  0  0  0  0  0  0  0  0  0  0
    2.1434   -1.2375    0.0000 C   0  0  0  0  0  0  0  0  0  0  0  0
    2.8579   -1.6500    0.0000 C   0  0  0  0  0  0  0  0  0  0  0  0
    3.5253   -2.9599    0.0000 C   0  0  0  0  0  0  0  0  0  0  0  0
    2.1904   -2.9599    0.0000 C   0  0  0  0  0  0  0  0  0  0  0  0
    4.7252   -5.7469    0.0000 C   0  0  0  0  0  0  0  0  0  0  0  0
    2.8579   -2.4750    0.0000 C   0  0  0  0  0  0  0  0  0  0  0  0
    3.2704   -3.7445    0.0000 C   0  0  0  0  0  0  0  0  0  0  0  0
    5.0607   -4.9932    0.0000 C   0  0  0  0  0  0  0  0  0  0  0  0
    7.0372   -4.0670    0.0000 C   0  0  0  0  0  0  0  0  0  0  0  0
    6.2167   -4.1533    0.0000 C   0  0  0  0  0  0  0  0  0  0  0  0
    7.5222   -4.7345    0.0000 C   0  0  0  0  0  0  0  0  0  0  0  0
    5.8812   -4.9070    0.0000 C   0  0  0  0  0  0  0  0  0  0  0  0
    3.7553   -4.4120    0.0000 C   0  0  0  0  0  0  0  0  0  0  0  0
    7.1866   -5.4882    0.0000 C   0  0  0  0  0  0  0  0  0  0  0  0
    3.9047   -5.8331    0.0000 Cl  0  0  0  0  0  0  0  0  0  0  0  0
    4.5758   -4.3257    0.0000 N   0  0  0  0  0  0  0  0  0  0  0  0
    2.4454   -3.7445    0.0000 N   0  0  0  0  0  0  0  0  0  0  0  0
    7.3728   -3.3134    0.0000 O   0  0  0  0  0  0  0  0  0  0  0  0
    5.7318   -3.4858    0.0000 O   0  0  0  0  0  0  0  0  0  0  0  0
    8.3426   -4.6482    0.0000 O   0  0  0  0  0  0  0  0  0  0  0  0
    3.4197   -5.1657    0.0000 O   0  0  0  0  0  0  0  0  0  0  0  0
    6.3661   -5.5744    0.0000 O   0  0  0  0  0  0  0  0  0  0  0  0
    7.6715   -6.1556    0.0000 S   0  0  0  0  0  0  0  0  0  0  0  0
    0.0000    0.0000    0.0000 H   0  0  0  0  0  0  0  0  0  0  0  0
    0.0000    0.0000    0.0000 H   0  0  0  0  0  0  0  0  0  0  0  0
    0.0000    0.0000    0.0000 H   0  0  0  0  0  0  0  0  0  0  0  0
    0.0000    0.0000    0.0000 H   0  0  0  0  0  0  0  0  0  0  0  0
    0.0000    0.0000    0.0000 H   0  0  0  0  0  0  0  0  0  0  0  0
    0.0000    0.0000    0.0000 H   0  0  0  0  0  0  0  0  0  0  0  0
    0.0000    0.0000    0.0000 H   0  0  0  0  0  0  0  0  0  0  0  0
    0.0000    0.0000    0.0000 H   0  0  0  0  0  0  0  0  0  0  0  0
    0.0000    0.0000    0.0000 H   0  0  0  0  0  0  0  0  0  0  0  0
    0.0000    0.0000    0.0000 H   0  0  0  0  0  0  0  0  0  0  0  0
    0.0000    0.0000    0.0000 H   0  0  0  0  0  0  0  0  0  0  0  0
    0.0000    0.0000    0.0000 H   0  0  0  0  0  0  0  0  0  0  0  0
    0.0000    0.0000    0.0000 H   0  0  0  0  0  0  0  0  0  0  0  0
    0.0000    0.0000    0.0000 H   0  0  0  0  0  0  0  0  0  0  0  0
    0.0000    0.0000    0.0000 H   0  0  0  0  0  0  0  0  0  0  0  0
    0.0000    0.0000    0.0000 H   0  0  0  0  0  0  0  0  0  0  0  0
    0.0000    0.0000    0.0000 H   0  0  0  0  0  0  0  0  0  0  0  0
    0.0000    0.0000    0.0000 H   0  0  0  0  0  0  0  0  0  0  0  0
    0.0000    0.0000    0.0000 H   0  0  0  0  0  0  0  0  0  0  0  0
    0.0000    0.0000    0.0000 H   0  0  0  0  0  0  0  0  0  0  0  0
    0.0000    0.0000    0.0000 H   0  0  0  0  0  0  0  0  0  0  0  0
    0.0000    0.0000    0.0000 H   0  0  0  0  0  0  0  0  0  0  0  0
    0.0000    0.0000    0.0000 H   0  0  0  0  0  0  0  0  0  0  0  0
    0.0000    0.0000    0.0000 H   0  0  0  0  0  0  0  0  0  0  0  0
    0.0000    0.0000    0.0000 H   0  0  0  0  0  0  0  0  0  0  0  0
    0.0000    0.0000    0.0000 H   0  0  0  0  0  0  0  0  0  0  0  0
    0.0000    0.0000    0.0000 H   0  0  0  0  0  0  0  0  0  0  0  0
    0.0000    0.0000    0.0000 H   0  0  0  0  0  0  0  0  0  0  0  0
    0.0000    0.0000    0.0000 H   0  0  0  0  0  0  0  0  0  0  0  0
    0.0000    0.0000    0.0000 H   0  0  0  0  0  0  0  0  0  0  0  0
    0.0000    0.0000    0.0000 H   0  0  0  0  0  0  0  0  0  0  0  0
    0.0000    0.0000    0.0000 H   0  0  0  0  0  0  0  0  0  0  0  0
    0.0000    0.0000    0.0000 H   0  0  0  0  0  0  0  0  0  0  0  0
  5  1  1  0
  6  5  1  0
  9  2  1  1
 10  6  1  6
 10  7  1  0
 10  8  1  0
 11  7  1  0
 12  9  1  0
 14 13  1  0
 15 13  1  0
 16 12  1  0
 16 14  1  0
 11 17  1  6
 18 15  1  0
  9 19  1  0
 12 20  1  1
 20 17  2  3
 21  3  1  0
 21  8  1  0
 21 11  1  0
 13 22  1  6
 14 23  1  6
 15 24  1  6
 17 25  1  0
 26 16  1  0
 26 18  1  0
 27  4  1  0
 18 27  1  6
  1 28  1  0
  1 29  1  0
  1 30  1  0
  2 31  1  0
  2 32  1  0
  2 33  1  0
  3 34  1  0
  3 35  1  0
  3 36  1  0
  4 37  1  0
  4 38  1  0
  4 39  1  0
  5 40  1  0
  5 41  1  0
  6 42  1  0
  6 43  1  0
  7 44  1  0
  7 45  1  0
  8 46  1  0
  8 47  1  0
  9 48  1  0
 10 49  1  0
 11 50  1  0
 12 51  1  0
 13 52  1  0
 14 53  1  0
 15 54  1  0
 16 55  1  1
 18 56  1  0
 22 57  1  0
 23 58  1  0
 24 59  1  0
 25 60  1  0
M  END
>  <ALOGPS_LOGP>  (1) 
1.59

>  <ALOGPS_LOGS>  (1) 
-2.97

>  <ALOGPS_SOLUBILITY>  (1) 
4.60e-01 g/l

>  <DATABASE_ID>  (1) 
DB01190

>  <DATABASE_NAME>  (1) 
drugbank

>  <DRUGBANK_ID>  (1) 
DB01190

>  <DRUG_GROUPS>  (1) 
approved; vet_approved

>  <EXACT_MASS>  (1) 
424.179870573

>  <FORMULA>  (1) 
C18H33ClN2O5S

>  <GENERIC_NAME>  (1) 
Clindamycin

>  <INCHI_IDENTIFIER>  (1) 
InChI=1S/C18H33ClN2O5S/c1-5-6-10-7-11(21(3)8-10)17(25)20-12(9(2)19)16-14(23)13(22)15(24)18(26-16)27-4/h9-16,18,22-24H,5-8H2,1-4H3,(H,20,25)/t9-,10+,11-,12+,13-,14+,15+,16+,18+/m0/s1

>  <INCHI_KEY>  (1) 
KDLRVYVGXIQJDK-AWPVFWJPSA-N

>  <INTERNATIONAL_BRANDS>  (1) 
Clinimycin; Dalacin C; Dalacin T Topical Solution; Zindaclin

>  <JCHEM_ACCEPTOR_COUNT>  (1) 
7

>  <JCHEM_AVERAGE_POLARIZABILITY>  (1) 
44.98877760434728

>  <JCHEM_BIOAVAILABILITY>  (1) 
1

>  <JCHEM_DONOR_COUNT>  (1) 
4

>  <JCHEM_FORMAL_CHARGE>  (1) 
0

>  <JCHEM_GHOSE_FILTER>  (1) 
1

>  <JCHEM_IUPAC>  (1) 
(2S,4R)-N-[(1S,2S)-2-chloro-1-[(2R,3R,4S,5R,6R)-3,4,5-trihydroxy-6-(methylsulfanyl)oxan-2-yl]propyl]-1-methyl-4-propylpyrrolidine-2-carboximidic acid

>  <JCHEM_LOGP>  (1) 
1.0907162483664274

>  <JCHEM_MDDR_LIKE_RULE>  (1) 
0

>  <JCHEM_NUMBER_OF_RINGS>  (1) 
2

>  <JCHEM_PHYSIOLOGICAL_CHARGE>  (1) 
1

>  <JCHEM_PKA>  (1) 
12.498118572045847

>  <JCHEM_PKA_STRONGEST_ACIDIC>  (1) 
5.905430827760382

>  <JCHEM_PKA_STRONGEST_BASIC>  (1) 
6.744095419361042

>  <JCHEM_POLAR_SURFACE_AREA>  (1) 
105.75000000000001

>  <JCHEM_REFRACTIVITY>  (1) 
106.23899999999999

>  <JCHEM_ROTATABLE_BOND_COUNT>  (1) 
7

>  <JCHEM_RULE_OF_FIVE>  (1) 
1

>  <JCHEM_TRADITIONAL_IUPAC>  (1) 
clindamycin

>  <JCHEM_VEBER_RULE>  (1) 
0

>  <MOLECULAR_WEIGHT>  (1) 
424.983

>  <PRODUCTS>  (1) 
Acanya; Apo-clindamycin; Auro-clindamycin; Ava-clindamycin; Benzaclin; Benzaclin Topical Gel; Biacna Topical Gel; CLIN-Single Use Kit; Cleocin; Cleocin Hydrochloride; Cleocin Pediatric; Cleocin Phosphate; Cleocin Phosphate (0009-6582) (Standalone); Cleocin T; Clinda-T; ClindaMax; ClindaMax Lotion; Clindacin ETZ; Clindacin P; Clindacin PAC; Clindagel; Clindamax; Clindamycin; Clindamycin - Benzoyl Peroxide; Clindamycin Hydrochloride; Clindamycin IV Infusion; Clindamycin Injection; Clindamycin Injection Sdz; Clindamycin Injection USP; Clindamycin Injection, USP; Clindamycin Palmitate Hydrochloride; Clindamycin Palmitate Hydrochloride (Pediatric); Clindamycin Palmitate Hydrochloride (pediatric); Clindamycin Phosphate; Clindamycin Phosphate Injection USP Liq; Clindamycin Phosphate and Benzoyl Peroxide; Clindamycin Phosphate and Tretinoin; Clindamycin and Benzoyl Peroxide; Clindamycin hydrochloride; Clindamycin in 5 Percent Dextrose; Clindamycin phosphate; Clindamycin phosphate and benzoyl peroxide; Clindamycine-150; Clindamycine-300; Clindasol; Clindesse; Clindets; Clindoxyl Adv Gel; Clindoxyl Gel; Dalacin C 150 mg; Dalacin C 300 mg; Dalacin C Flavoured Granules; Dalacin C Phosphate; Dalacin T 1%; Dalacin Vaginal Cream 20 mg; Duac; Evoclin; Med-clindamycin; Mylan-clindamycin; Neuac; Neuac Kit; Nu-clindamycin; Onexton; PMS-clindamycin; Ran-clindamycin; Ratio-clindamycin Capsules - 300mg; Ratio-clindamycin Capsules-150mg; Riva-clindamycin; Taro-benzoyl Peroxide / Clindamycin Kit; Taro-clindamycin; Taro-clindamycin/benzoyl Peroxide Gel; Teva-clindamycin; Veltin; Ziana

>  <SALTS>  (1) 
Clindamycin hydrochloride; Clindamycin palmitate hydrochloride; Clindamycin phosphate

>  <SECONDARY_ACCESSION_NUMBERS>  (1) 
APRD00566

>  <SMILES>  (1) 
[H][C@@](C)(Cl)[C@@]([H])(N=C(O)[C@]1([H])C[C@@]([H])(CCC)CN1C)[C@@]1([H])O[C@]([H])(SC)[C@]([H])(O)[C@@]([H])(O)[C@@]1([H])O

>  <SYNONYMS>  (1) 
7-CDL; 7(S)-Chloro-7-deoxylincomycin; Clindamicina; Clindamycine; Clindamycinum

$$$$
