1162
     RDKit          2D

 53 56  0  0  1  0  0  0  0  0999 V2000
    2.8695    0.3387    0.0000 O   0  0  0  0  0  0  0  0  0  0  0  0
    3.6703    2.3967    0.0000 O   0  0  0  0  0  0  0  0  0  0  0  0
   10.1551    0.3540    0.0000 O   0  0  0  0  0  0  0  0  0  0  0  0
   10.1551   -1.3358    0.0000 O   0  0  0  0  0  0  0  0  0  0  0  0
    4.3847    1.1592    0.0000 N   0  0  0  0  0  0  0  0  0  0  0  0
    5.8137    0.3341    0.0000 N   0  0  0  0  0  0  0  0  0  0  0  0
    7.2427    0.3341    0.0000 N   0  0  0  0  0  0  0  0  0  0  0  0
    6.5282   -0.9034    0.0000 N   0  0  0  0  0  0  0  0  0  0  0  0
    7.2427   -2.1409    0.0000 N   0  0  0  0  0  0  0  0  0  0  0  0
    2.9558    1.1592    0.0000 C   0  0  0  0  0  0  0  0  0  0  0  0
    5.0993    1.5717    0.0000 C   0  0  0  0  0  0  0  0  0  0  0  0
    4.3847    0.3341    0.0000 C   0  0  0  0  0  0  0  0  0  0  0  0
    5.8137    1.1592    0.0000 C   0  0  0  0  0  0  0  0  0  0  0  0
    5.0993   -0.0784    0.0000 C   0  0  0  0  0  0  0  0  0  0  0  0
    2.2021    1.4947    0.0000 C   0  0  0  0  0  0  0  0  0  0  0  0
    3.6703    1.5717    0.0000 C   0  0  0  0  0  0  0  0  0  0  0  0
    1.6500    0.8816    0.0000 C   0  0  0  0  0  0  0  0  0  0  0  0
    2.0625    0.1671    0.0000 C   0  0  0  0  0  0  0  0  0  0  0  0
    6.5282   -0.0784    0.0000 C   0  0  0  0  0  0  0  0  0  0  0  0
    7.9572   -0.0784    0.0000 C   0  0  0  0  0  0  0  0  0  0  0  0
    7.9572   -0.9034    0.0000 C   0  0  0  0  0  0  0  0  0  0  0  0
    7.2427   -1.3159    0.0000 C   0  0  0  0  0  0  0  0  0  0  0  0
    8.6947    0.3628    0.0000 C   0  0  0  0  0  0  0  0  0  0  0  0
    8.6947   -1.3445    0.0000 C   0  0  0  0  0  0  0  0  0  0  0  0
    9.4423   -0.0612    0.0000 C   0  0  0  0  0  0  0  0  0  0  0  0
    9.4423   -0.9206    0.0000 C   0  0  0  0  0  0  0  0  0  0  0  0
   10.1519    1.1790    0.0000 C   0  0  0  0  0  0  0  0  0  0  0  0
   10.8712   -0.9261    0.0000 C   0  0  0  0  0  0  0  0  0  0  0  0
    0.0000    0.0000    0.0000 H   0  0  0  0  0  0  0  0  0  0  0  0
    0.0000    0.0000    0.0000 H   0  0  0  0  0  0  0  0  0  0  0  0
    0.0000    0.0000    0.0000 H   0  0  0  0  0  0  0  0  0  0  0  0
    0.0000    0.0000    0.0000 H   0  0  0  0  0  0  0  0  0  0  0  0
    0.0000    0.0000    0.0000 H   0  0  0  0  0  0  0  0  0  0  0  0
    0.0000    0.0000    0.0000 H   0  0  0  0  0  0  0  0  0  0  0  0
    0.0000    0.0000    0.0000 H   0  0  0  0  0  0  0  0  0  0  0  0
    0.0000    0.0000    0.0000 H   0  0  0  0  0  0  0  0  0  0  0  0
    0.0000    0.0000    0.0000 H   0  0  0  0  0  0  0  0  0  0  0  0
    0.0000    0.0000    0.0000 H   0  0  0  0  0  0  0  0  0  0  0  0
    0.0000    0.0000    0.0000 H   0  0  0  0  0  0  0  0  0  0  0  0
    0.0000    0.0000    0.0000 H   0  0  0  0  0  0  0  0  0  0  0  0
    0.0000    0.0000    0.0000 H   0  0  0  0  0  0  0  0  0  0  0  0
    0.0000    0.0000    0.0000 H   0  0  0  0  0  0  0  0  0  0  0  0
    0.0000    0.0000    0.0000 H   0  0  0  0  0  0  0  0  0  0  0  0
    0.0000    0.0000    0.0000 H   0  0  0  0  0  0  0  0  0  0  0  0
    0.0000    0.0000    0.0000 H   0  0  0  0  0  0  0  0  0  0  0  0
    0.0000    0.0000    0.0000 H   0  0  0  0  0  0  0  0  0  0  0  0
    0.0000    0.0000    0.0000 H   0  0  0  0  0  0  0  0  0  0  0  0
    0.0000    0.0000    0.0000 H   0  0  0  0  0  0  0  0  0  0  0  0
    0.0000    0.0000    0.0000 H   0  0  0  0  0  0  0  0  0  0  0  0
    0.0000    0.0000    0.0000 H   0  0  0  0  0  0  0  0  0  0  0  0
    0.0000    0.0000    0.0000 H   0  0  0  0  0  0  0  0  0  0  0  0
    0.0000    0.0000    0.0000 H   0  0  0  0  0  0  0  0  0  0  0  0
    0.0000    0.0000    0.0000 H   0  0  0  0  0  0  0  0  0  0  0  0
  1 10  1  0
  1 18  1  0
  2 16  2  0
  3 25  1  0
  3 27  1  0
  4 26  1  0
  4 28  1  0
  5 11  1  0
  5 12  1  0
  5 16  1  0
  6 13  1  0
  6 14  1  0
  6 19  1  0
  7 19  2  0
  7 20  1  0
  8 19  1  0
  8 22  2  0
  9 22  1  0
 10 15  1  0
 10 16  1  0
 11 13  1  0
 12 14  1  0
 15 17  1  0
 17 18  1  0
 20 21  2  0
 20 23  1  0
 21 22  1  0
 21 24  1  0
 23 25  2  0
 24 26  2  0
 25 26  1  0
  9 29  1  0
  9 30  1  0
 10 31  1  0
 11 32  1  0
 11 33  1  0
 12 34  1  0
 12 35  1  0
 13 36  1  0
 13 37  1  0
 14 38  1  0
 14 39  1  0
 15 40  1  0
 15 41  1  0
 17 42  1  0
 17 43  1  0
 18 44  1  0
 18 45  1  0
 23 46  1  0
 24 47  1  0
 27 48  1  0
 27 49  1  0
 27 50  1  0
 28 51  1  0
 28 52  1  0
 28 53  1  0
M  END
>  <ALOGPS_LOGP>  (1) 
1.12

>  <ALOGPS_LOGS>  (1) 
-2.41

>  <ALOGPS_SOLUBILITY>  (1) 
1.50e+00 g/l

>  <DATABASE_ID>  (1) 
DB01162

>  <DATABASE_NAME>  (1) 
drugbank

>  <DRUGBANK_ID>  (1) 
DB01162

>  <DRUG_GROUPS>  (1) 
approved

>  <EXACT_MASS>  (1) 
387.190654313

>  <FORMULA>  (1) 
C19H25N5O4

>  <GENERIC_NAME>  (1) 
Terazosin

>  <INCHI_IDENTIFIER>  (1) 
InChI=1S/C19H25N5O4/c1-26-15-10-12-13(11-16(15)27-2)21-19(22-17(12)20)24-7-5-23(6-8-24)18(25)14-4-3-9-28-14/h10-11,14H,3-9H2,1-2H3,(H2,20,21,22)

>  <INCHI_KEY>  (1) 
VCKUSRYTPJJLNI-UHFFFAOYSA-N

>  <INTERNATIONAL_BRANDS>  (1) 
Blavin; Flumarc; Fosfomic; Heitrin; Hytrinex; Itrin; Urodie; Vicard; Zayasel

>  <JCHEM_ACCEPTOR_COUNT>  (1) 
8

>  <JCHEM_AVERAGE_POLARIZABILITY>  (1) 
41.26383377107108

>  <JCHEM_BIOAVAILABILITY>  (1) 
1

>  <JCHEM_DONOR_COUNT>  (1) 
1

>  <JCHEM_FORMAL_CHARGE>  (1) 
0

>  <JCHEM_GHOSE_FILTER>  (1) 
1

>  <JCHEM_IUPAC>  (1) 
6,7-dimethoxy-2-[4-(oxolane-2-carbonyl)piperazin-1-yl]quinazolin-4-amine

>  <JCHEM_LOGP>  (1) 
1.1797275923333332

>  <JCHEM_MDDR_LIKE_RULE>  (1) 
0

>  <JCHEM_NUMBER_OF_RINGS>  (1) 
4

>  <JCHEM_PHYSIOLOGICAL_CHARGE>  (1) 
1

>  <JCHEM_PKA_STRONGEST_ACIDIC>  (1) 
19.92919710941319

>  <JCHEM_PKA_STRONGEST_BASIC>  (1) 
7.242946653576092

>  <JCHEM_POLAR_SURFACE_AREA>  (1) 
103.04

>  <JCHEM_REFRACTIVITY>  (1) 
105.1764

>  <JCHEM_ROTATABLE_BOND_COUNT>  (1) 
4

>  <JCHEM_RULE_OF_FIVE>  (1) 
1

>  <JCHEM_TRADITIONAL_IUPAC>  (1) 
terazosin

>  <JCHEM_VEBER_RULE>  (1) 
0

>  <MOLECULAR_WEIGHT>  (1) 
387.4329

>  <PRODUCTS>  (1) 
Apo-terazosin; Dom-terazosin; Hytrin; Hytrin-7 Tabs 1mg-7 Tabs 2mg-14 Tabs 5mg; Mylan-terazosin; Ntp-terazosin; Nu-terazosin; Nu-terazosin 10 Mg Tablets; PHL-terazosin; PMS-terazosin; Ratio-terazosin - Tab 10mg; Ratio-terazosin - Tab 1mg; Ratio-terazosin - Tab 2mg; Ratio-terazosin - Tab 5mg; Riva-terazosin 1 Mg Tablets; Riva-terazosin 10 Mg Tablets; Riva-terazosin 2 Mg Tablets; Riva-terazosin 5 Mg Tablets; Tarazosin; Terazosin; Terazosin Hydrochloride; Terazosin Hydrochloride Anhydrous; Terazosin hydrochloride; Terazosin-1; Terazosin-10; Terazosin-2; Terazosin-5; Teva-terazosin

>  <SALTS>  (1) 
Terazosin hydrochloride; Terazosin hydrochloride hydrate

>  <SECONDARY_ACCESSION_NUMBERS>  (1) 
APRD00667

>  <SMILES>  (1) 
COC1=C(OC)C=C2C(N)=NC(=NC2=C1)N1CCN(CC1)C(=O)C1CCCO1

>  <SYNONYMS>  (1) 
1-(4-Amino-6,7-dimethoxy-2-quinazolinyl)-4-((tetrahydro-2-furanyl)carbonyl)piperazine; Terazosina; Terazosine; TÃ©razosine; Terazosinum

$$$$
