
     RDKit          2D

 39 41  0  0  0  0  0  0  0  0999 V2000
    9.0291  -10.1076    0.0000 C   0  0  0  0  0  0  0  0  0  0  0  0
    8.3146  -10.5201    0.0000 C   0  0  0  0  0  0  0  0  0  0  0  0
    8.3146  -11.3452    0.0000 C   0  0  0  0  0  0  0  0  0  0  0  0
    9.0291  -11.7577    0.0000 C   0  0  0  0  0  0  0  0  0  0  0  0
    9.7436  -11.3452    0.0000 C   0  0  0  0  0  0  0  0  0  0  0  0
    9.7436  -10.5201    0.0000 C   0  0  0  0  0  0  0  0  0  0  0  0
   10.4581  -10.1076    0.0000 C   0  0  0  0  0  0  0  0  0  0  0  0
   10.4581  -11.7577    0.0000 S   0  0  0  0  0  0  0  0  0  0  0  0
   11.1725  -11.3452    0.0000 C   0  0  0  0  0  0  0  0  0  0  0  0
   11.1725  -10.5201    0.0000 C   0  0  0  0  0  0  0  0  0  0  0  0
   11.8870  -10.1076    0.0000 C   0  0  0  0  0  0  0  0  0  0  0  0
   11.8870  -11.7577    0.0000 C   0  0  0  0  0  0  0  0  0  0  0  0
   12.6015  -11.3452    0.0000 C   0  0  0  0  0  0  0  0  0  0  0  0
   12.6015  -10.5201    0.0000 C   0  0  0  0  0  0  0  0  0  0  0  0
   13.3160  -10.1076    0.0000 Cl  0  0  0  0  0  0  0  0  0  0  0  0
   10.4581   -9.2826    0.0000 C   0  0  0  0  0  0  0  0  0  0  0  0
    9.7436   -8.8701    0.0000 C   0  0  0  0  0  0  0  0  0  0  0  0
    9.7436   -8.0451    0.0000 C   0  0  0  0  0  0  0  0  0  0  0  0
    9.0291   -7.6326    0.0000 N   0  0  0  0  0  0  0  0  0  0  0  0
    9.0291   -6.8076    0.0000 C   0  0  0  0  0  0  0  0  0  0  0  0
    8.3146   -8.0451    0.0000 C   0  0  0  0  0  0  0  0  0  0  0  0
    0.0000    0.0000    0.0000 H   0  0  0  0  0  0  0  0  0  0  0  0
    0.0000    0.0000    0.0000 H   0  0  0  0  0  0  0  0  0  0  0  0
    0.0000    0.0000    0.0000 H   0  0  0  0  0  0  0  0  0  0  0  0
    0.0000    0.0000    0.0000 H   0  0  0  0  0  0  0  0  0  0  0  0
    0.0000    0.0000    0.0000 H   0  0  0  0  0  0  0  0  0  0  0  0
    0.0000    0.0000    0.0000 H   0  0  0  0  0  0  0  0  0  0  0  0
    0.0000    0.0000    0.0000 H   0  0  0  0  0  0  0  0  0  0  0  0
    0.0000    0.0000    0.0000 H   0  0  0  0  0  0  0  0  0  0  0  0
    0.0000    0.0000    0.0000 H   0  0  0  0  0  0  0  0  0  0  0  0
    0.0000    0.0000    0.0000 H   0  0  0  0  0  0  0  0  0  0  0  0
    0.0000    0.0000    0.0000 H   0  0  0  0  0  0  0  0  0  0  0  0
    0.0000    0.0000    0.0000 H   0  0  0  0  0  0  0  0  0  0  0  0
    0.0000    0.0000    0.0000 H   0  0  0  0  0  0  0  0  0  0  0  0
    0.0000    0.0000    0.0000 H   0  0  0  0  0  0  0  0  0  0  0  0
    0.0000    0.0000    0.0000 H   0  0  0  0  0  0  0  0  0  0  0  0
    0.0000    0.0000    0.0000 H   0  0  0  0  0  0  0  0  0  0  0  0
    0.0000    0.0000    0.0000 H   0  0  0  0  0  0  0  0  0  0  0  0
    0.0000    0.0000    0.0000 H   0  0  0  0  0  0  0  0  0  0  0  0
  1  2  2  0
  1  6  1  0
  2  3  1  0
  3  4  2  0
  4  5  1  0
  7  6  1  0
  6  5  2  0
  5  8  1  0
  7 10  1  0
  8  9  1  0
 11 10  2  0
 10  9  1  0
  9 12  2  0
 11 14  1  0
 12 13  1  0
 13 14  2  0
 14 15  1  0
  7 16  2  0
 16 17  1  0
 17 18  1  0
 18 19  1  0
 19 20  1  0
 19 21  1  0
  1 22  1  0
  2 23  1  0
  3 24  1  0
  4 25  1  0
 11 26  1  0
 12 27  1  0
 13 28  1  0
 16 29  1  0
 17 30  1  0
 17 31  1  0
 18 32  1  0
 18 33  1  0
 20 34  1  0
 20 35  1  0
 20 36  1  0
 21 37  1  0
 21 38  1  0
 21 39  1  0
M  END
>  <ALOGPS_LOGP>  (1) 
5.42

>  <ALOGPS_LOGS>  (1) 
-5.94

>  <ALOGPS_SOLUBILITY>  (1) 
3.66e-04 g/l

>  <DATABASE_ID>  (1) 
DB01239

>  <DATABASE_NAME>  (1) 
drugbank

>  <DRUGBANK_ID>  (1) 
DB01239

>  <DRUG_GROUPS>  (1) 
approved; investigational; withdrawn

>  <EXACT_MASS>  (1) 
315.084847978

>  <FORMULA>  (1) 
C18H18ClNS

>  <GENERIC_NAME>  (1) 
Chlorprothixene

>  <INCHI_IDENTIFIER>  (1) 
InChI=1S/C18H18ClNS/c1-20(2)11-5-7-14-15-6-3-4-8-17(15)21-18-10-9-13(19)12-16(14)18/h3-4,6-10,12H,5,11H2,1-2H3

>  <INCHI_KEY>  (1) 
WSPOMRSOLSGNFJ-UHFFFAOYSA-N

>  <INTERNATIONAL_BRANDS>  (1) 
Clothixen; Cloxan; Taractan

>  <JCHEM_ACCEPTOR_COUNT>  (1) 
1

>  <JCHEM_AVERAGE_POLARIZABILITY>  (1) 
35.851375481735936

>  <JCHEM_BIOAVAILABILITY>  (1) 
1

>  <JCHEM_DONOR_COUNT>  (1) 
0

>  <JCHEM_FORMAL_CHARGE>  (1) 
0

>  <JCHEM_GHOSE_FILTER>  (1) 
1

>  <JCHEM_IUPAC>  (1) 
[3-(2-chloro-9H-thioxanthen-9-ylidene)propyl]dimethylamine

>  <JCHEM_LOGP>  (1) 
5.065966363

>  <JCHEM_MDDR_LIKE_RULE>  (1) 
0

>  <JCHEM_NUMBER_OF_RINGS>  (1) 
3

>  <JCHEM_PHYSIOLOGICAL_CHARGE>  (1) 
1

>  <JCHEM_PKA_STRONGEST_BASIC>  (1) 
9.760738430992246

>  <JCHEM_POLAR_SURFACE_AREA>  (1) 
3.24

>  <JCHEM_REFRACTIVITY>  (1) 
104.65789999999998

>  <JCHEM_ROTATABLE_BOND_COUNT>  (1) 
3

>  <JCHEM_RULE_OF_FIVE>  (1) 
0

>  <JCHEM_TRADITIONAL_IUPAC>  (1) 
chlorprothixene

>  <JCHEM_VEBER_RULE>  (1) 
1

>  <MOLECULAR_WEIGHT>  (1) 
315.86

>  <SECONDARY_ACCESSION_NUMBERS>  (1) 
APRD00718

>  <SMILES>  (1) 
[H]C(CCN(C)C)=C1C2=CC(Cl)=CC=C2SC2=C1C=CC=C2

>  <SYNONYMS>  (1) 
Alpha-Chlorprothixene; Chlorprothixen; Chlorprothixine; Chlorprotixen; Chlorprotixene; Chlorprotixine; Chlothixen

$$$$
