1291
     RDKit          2D

 37 37  0  0  1  0  0  0  0  0999 V2000
    4.5080   -1.3654    0.0000 O   0  0  0  0  0  0  0  0  0  0  0  0
    7.3659    1.1096    0.0000 O   0  0  0  0  0  0  0  0  0  0  0  0
    7.3659   -1.3654    0.0000 O   0  0  0  0  0  0  0  0  0  0  0  0
    3.0791   -0.5404    0.0000 N   0  0  0  0  0  0  0  0  0  0  0  0
    5.9370   -0.5404    0.0000 N   0  0  0  0  0  0  0  0  0  0  0  0
    2.3645   -0.1279    0.0000 C   0  0  0  0  0  0  0  0  0  0  0  0
    3.7935   -0.1279    0.0000 C   0  0  0  0  0  0  0  0  0  0  0  0
    4.5080   -0.5404    0.0000 C   0  0  0  0  0  0  0  0  0  0  0  0
    1.6500    0.2846    0.0000 C   0  0  0  0  0  0  0  0  0  0  0  0
    1.9520   -0.8423    0.0000 C   0  0  0  0  0  0  0  0  0  0  0  0
    2.7770    0.5866    0.0000 C   0  0  0  0  0  0  0  0  0  0  0  0
    5.2224   -0.1279    0.0000 C   0  0  0  0  0  0  0  0  0  0  0  0
    5.2224    0.6971    0.0000 C   0  0  0  0  0  0  0  0  0  0  0  0
    6.6515   -0.1279    0.0000 C   0  0  0  0  0  0  0  0  0  0  0  0
    5.9370    1.1096    0.0000 C   0  0  0  0  0  0  0  0  0  0  0  0
    6.6515    0.6971    0.0000 C   0  0  0  0  0  0  0  0  0  0  0  0
    7.3659   -0.5404    0.0000 C   0  0  0  0  0  0  0  0  0  0  0  0
    0.0000    0.0000    0.0000 H   0  0  0  0  0  0  0  0  0  0  0  0
    0.0000    0.0000    0.0000 H   0  0  0  0  0  0  0  0  0  0  0  0
    0.0000    0.0000    0.0000 H   0  0  0  0  0  0  0  0  0  0  0  0
    0.0000    0.0000    0.0000 H   0  0  0  0  0  0  0  0  0  0  0  0
    0.0000    0.0000    0.0000 H   0  0  0  0  0  0  0  0  0  0  0  0
    0.0000    0.0000    0.0000 H   0  0  0  0  0  0  0  0  0  0  0  0
    0.0000    0.0000    0.0000 H   0  0  0  0  0  0  0  0  0  0  0  0
    0.0000    0.0000    0.0000 H   0  0  0  0  0  0  0  0  0  0  0  0
    0.0000    0.0000    0.0000 H   0  0  0  0  0  0  0  0  0  0  0  0
    0.0000    0.0000    0.0000 H   0  0  0  0  0  0  0  0  0  0  0  0
    0.0000    0.0000    0.0000 H   0  0  0  0  0  0  0  0  0  0  0  0
    0.0000    0.0000    0.0000 H   0  0  0  0  0  0  0  0  0  0  0  0
    0.0000    0.0000    0.0000 H   0  0  0  0  0  0  0  0  0  0  0  0
    0.0000    0.0000    0.0000 H   0  0  0  0  0  0  0  0  0  0  0  0
    0.0000    0.0000    0.0000 H   0  0  0  0  0  0  0  0  0  0  0  0
    0.0000    0.0000    0.0000 H   0  0  0  0  0  0  0  0  0  0  0  0
    0.0000    0.0000    0.0000 H   0  0  0  0  0  0  0  0  0  0  0  0
    0.0000    0.0000    0.0000 H   0  0  0  0  0  0  0  0  0  0  0  0
    0.0000    0.0000    0.0000 H   0  0  0  0  0  0  0  0  0  0  0  0
    0.0000    0.0000    0.0000 H   0  0  0  0  0  0  0  0  0  0  0  0
  1  8  1  0
  2 16  1  0
  3 17  1  0
  4  6  1  0
  4  7  1  0
  5 12  2  0
  5 14  1  0
  6  9  1  0
  6 10  1  0
  6 11  1  0
  7  8  1  0
  8 12  1  0
 12 13  1  0
 13 15  2  0
 14 16  2  0
 14 17  1  0
 15 16  1  0
  1 18  1  0
  2 19  1  0
  3 20  1  0
  4 21  1  0
  7 22  1  0
  7 23  1  0
  8 24  1  0
  9 25  1  0
  9 26  1  0
  9 27  1  0
 10 28  1  0
 10 29  1  0
 10 30  1  0
 11 31  1  0
 11 32  1  0
 11 33  1  0
 13 34  1  0
 15 35  1  0
 17 36  1  0
 17 37  1  0
M  END
>  <ALOGPS_LOGP>  (1) 
0.38

>  <ALOGPS_LOGS>  (1) 
-1.59

>  <ALOGPS_SOLUBILITY>  (1) 
6.22e+00 g/l

>  <DATABASE_ID>  (1) 
DB01291

>  <DATABASE_NAME>  (1) 
drugbank

>  <DRUGBANK_ID>  (1) 
DB01291

>  <DRUG_GROUPS>  (1) 
approved

>  <EXACT_MASS>  (1) 
240.147392516

>  <FORMULA>  (1) 
C12H20N2O3

>  <GENERIC_NAME>  (1) 
Pirbuterol

>  <INCHI_IDENTIFIER>  (1) 
InChI=1S/C12H20N2O3/c1-12(2,3)13-6-11(17)8-4-5-10(16)9(7-15)14-8/h4-5,11,13,15-17H,6-7H2,1-3H3

>  <INCHI_KEY>  (1) 
VQDBNKDJNJQRDG-UHFFFAOYSA-N

>  <JCHEM_ACCEPTOR_COUNT>  (1) 
5

>  <JCHEM_AVERAGE_POLARIZABILITY>  (1) 
26.305948951201714

>  <JCHEM_BIOAVAILABILITY>  (1) 
1

>  <JCHEM_DONOR_COUNT>  (1) 
4

>  <JCHEM_FORMAL_CHARGE>  (1) 
0

>  <JCHEM_GHOSE_FILTER>  (1) 
0

>  <JCHEM_IUPAC>  (1) 
6-[2-(tert-butylamino)-1-hydroxyethyl]-2-(hydroxymethyl)pyridin-3-ol

>  <JCHEM_LOGP>  (1) 
-0.6583083456394601

>  <JCHEM_MDDR_LIKE_RULE>  (1) 
0

>  <JCHEM_NUMBER_OF_RINGS>  (1) 
1

>  <JCHEM_PHYSIOLOGICAL_CHARGE>  (1) 
1

>  <JCHEM_PKA>  (1) 
13.49198886655686

>  <JCHEM_PKA_STRONGEST_ACIDIC>  (1) 
8.786121278063614

>  <JCHEM_PKA_STRONGEST_BASIC>  (1) 
9.592459278959815

>  <JCHEM_POLAR_SURFACE_AREA>  (1) 
85.61

>  <JCHEM_REFRACTIVITY>  (1) 
64.74470000000001

>  <JCHEM_ROTATABLE_BOND_COUNT>  (1) 
5

>  <JCHEM_RULE_OF_FIVE>  (1) 
1

>  <JCHEM_TRADITIONAL_IUPAC>  (1) 
pirbuterol

>  <JCHEM_VEBER_RULE>  (1) 
0

>  <MOLECULAR_WEIGHT>  (1) 
240.2988

>  <PRODUCTS>  (1) 
Maxair Aem 240mcg/aem

>  <SALTS>  (1) 
Pirbuterol acetate; Pirbuterol hydrochloride

>  <SMILES>  (1) 
CC(C)(C)NCC(O)C1=NC(CO)=C(O)C=C1

>  <SYNONYMS>  (1) 
(+/-)-pirbuterol; Pirbuterolum

$$$$
