1065
     RDKit          2D

 33 34  0  0  0  0  0  0  0  0999 V2000
    2.3645   -0.2783    0.0000 O   0  0  0  0  0  0  0  0  0  0  0  0
    7.9668    0.8552    0.0000 O   0  0  0  0  0  0  0  0  0  0  0  0
    5.2886   -1.7673    0.0000 N   0  0  0  0  0  0  0  0  0  0  0  0
    6.6086    1.2992    0.0000 N   0  0  0  0  0  0  0  0  0  0  0  0
    5.2886   -0.4394    0.0000 C   0  0  0  0  0  0  0  0  0  0  0  0
    4.5080   -0.6908    0.0000 C   0  0  0  0  0  0  0  0  0  0  0  0
    5.5449    0.3448    0.0000 C   0  0  0  0  0  0  0  0  0  0  0  0
    4.5080   -1.5158    0.0000 C   0  0  0  0  0  0  0  0  0  0  0  0
    5.7701   -1.1033    0.0000 C   0  0  0  0  0  0  0  0  0  0  0  0
    6.3522    0.5149    0.0000 C   0  0  0  0  0  0  0  0  0  0  0  0
    3.7935   -0.2783    0.0000 C   0  0  0  0  0  0  0  0  0  0  0  0
    3.7935   -1.9283    0.0000 C   0  0  0  0  0  0  0  0  0  0  0  0
    3.0791   -0.6908    0.0000 C   0  0  0  0  0  0  0  0  0  0  0  0
    3.0791   -1.5158    0.0000 C   0  0  0  0  0  0  0  0  0  0  0  0
    7.4158    1.4693    0.0000 C   0  0  0  0  0  0  0  0  0  0  0  0
    7.6721    2.2535    0.0000 C   0  0  0  0  0  0  0  0  0  0  0  0
    1.6500   -0.6908    0.0000 C   0  0  0  0  0  0  0  0  0  0  0  0
    0.0000    0.0000    0.0000 H   0  0  0  0  0  0  0  0  0  0  0  0
    0.0000    0.0000    0.0000 H   0  0  0  0  0  0  0  0  0  0  0  0
    0.0000    0.0000    0.0000 H   0  0  0  0  0  0  0  0  0  0  0  0
    0.0000    0.0000    0.0000 H   0  0  0  0  0  0  0  0  0  0  0  0
    0.0000    0.0000    0.0000 H   0  0  0  0  0  0  0  0  0  0  0  0
    0.0000    0.0000    0.0000 H   0  0  0  0  0  0  0  0  0  0  0  0
    0.0000    0.0000    0.0000 H   0  0  0  0  0  0  0  0  0  0  0  0
    0.0000    0.0000    0.0000 H   0  0  0  0  0  0  0  0  0  0  0  0
    0.0000    0.0000    0.0000 H   0  0  0  0  0  0  0  0  0  0  0  0
    0.0000    0.0000    0.0000 H   0  0  0  0  0  0  0  0  0  0  0  0
    0.0000    0.0000    0.0000 H   0  0  0  0  0  0  0  0  0  0  0  0
    0.0000    0.0000    0.0000 H   0  0  0  0  0  0  0  0  0  0  0  0
    0.0000    0.0000    0.0000 H   0  0  0  0  0  0  0  0  0  0  0  0
    0.0000    0.0000    0.0000 H   0  0  0  0  0  0  0  0  0  0  0  0
    0.0000    0.0000    0.0000 H   0  0  0  0  0  0  0  0  0  0  0  0
    0.0000    0.0000    0.0000 H   0  0  0  0  0  0  0  0  0  0  0  0
  1 13  1  0
  1 17  1  0
  2 15  2  0
  3  8  1  0
  3  9  1  0
  4 10  1  0
  4 15  1  0
  5  6  1  0
  5  7  1  0
  5  9  2  0
  6  8  2  0
  6 11  1  0
  7 10  1  0
  8 12  1  0
 11 13  2  0
 12 14  2  0
 13 14  1  0
 15 16  1  0
  3 18  1  0
  4 19  1  0
  7 20  1  0
  7 21  1  0
  9 22  1  0
 10 23  1  0
 10 24  1  0
 11 25  1  0
 12 26  1  0
 14 27  1  0
 16 28  1  0
 16 29  1  0
 16 30  1  0
 17 31  1  0
 17 32  1  0
 17 33  1  0
M  END
>  <ALOGPS_LOGP>  (1) 
1.42

>  <ALOGPS_LOGS>  (1) 
-3.21

>  <ALOGPS_SOLUBILITY>  (1) 
1.43e-01 g/l

>  <DATABASE_ID>  (1) 
DB01065

>  <DATABASE_NAME>  (1) 
drugbank

>  <DRUGBANK_ID>  (1) 
DB01065

>  <DRUG_GROUPS>  (1) 
approved; nutraceutical; vet_approved

>  <EXACT_MASS>  (1) 
232.121177766

>  <FORMULA>  (1) 
C13H16N2O2

>  <GENERIC_NAME>  (1) 
Melatonin

>  <INCHI_IDENTIFIER>  (1) 
InChI=1S/C13H16N2O2/c1-9(16)14-6-5-10-8-15-13-4-3-11(17-2)7-12(10)13/h3-4,7-8,15H,5-6H2,1-2H3,(H,14,16)

>  <INCHI_KEY>  (1) 
DRLFMBDRBRZALE-UHFFFAOYSA-N

>  <INTERNATIONAL_BRANDS>  (1) 
Circadin; Mela-T; Melatol; Melatonin; Nature'S Harmony; Revital Melatonin; Rx Balance; Sleep Right; Vivitas

>  <JCHEM_ACCEPTOR_COUNT>  (1) 
2

>  <JCHEM_AVERAGE_POLARIZABILITY>  (1) 
25.649878848440522

>  <JCHEM_BIOAVAILABILITY>  (1) 
1

>  <JCHEM_DONOR_COUNT>  (1) 
2

>  <JCHEM_FORMAL_CHARGE>  (1) 
0

>  <JCHEM_GHOSE_FILTER>  (1) 
1

>  <JCHEM_IUPAC>  (1) 
N-[2-(5-methoxy-1H-indol-3-yl)ethyl]acetamide

>  <JCHEM_LOGP>  (1) 
1.1476127873333333

>  <JCHEM_MDDR_LIKE_RULE>  (1) 
0

>  <JCHEM_NUMBER_OF_RINGS>  (1) 
2

>  <JCHEM_PHYSIOLOGICAL_CHARGE>  (1) 
0

>  <JCHEM_PKA>  (1) 
16.5912762017432

>  <JCHEM_PKA_STRONGEST_ACIDIC>  (1) 
15.795496949109246

>  <JCHEM_PKA_STRONGEST_BASIC>  (1) 
-0.9409484155488886

>  <JCHEM_POLAR_SURFACE_AREA>  (1) 
54.120000000000005

>  <JCHEM_REFRACTIVITY>  (1) 
66.2799

>  <JCHEM_ROTATABLE_BOND_COUNT>  (1) 
4

>  <JCHEM_RULE_OF_FIVE>  (1) 
1

>  <JCHEM_TRADITIONAL_IUPAC>  (1) 
melatonin

>  <JCHEM_VEBER_RULE>  (1) 
0

>  <MOLECULAR_WEIGHT>  (1) 
232.2783

>  <PRODUCTS>  (1) 
Circadin; Medi-doze Rx Sleep Aid

>  <SECONDARY_ACCESSION_NUMBERS>  (1) 
APRD00742; DB08189

>  <SMILES>  (1) 
COC1=CC2=C(NC=C2CCNC(C)=O)C=C1

>  <SYNONYMS>  (1) 
5-methoxy-N-acetyltryptamine; N-[2-(5-methoxyindol-3-yl)ethyl]acetamide; N-Acetyl-5-methoxytryptamine

$$$$
