1144
     RDKit          2D

 22 22  0  0  0  0  0  0  0  0999 V2000
    1.6500    0.3341    0.0000 Cl  0  0  0  0  0  0  0  0  0  0  0  0
    1.6500   -1.3159    0.0000 Cl  0  0  0  0  0  0  0  0  0  0  0  0
    3.0790    1.1591    0.0000 S   0  0  0  0  0  0  0  0  0  0  0  0
    4.5079   -1.3159    0.0000 S   0  0  0  0  0  0  0  0  0  0  0  0
    3.9040    1.1591    0.0000 O   0  0  0  0  0  0  0  0  0  0  0  0
    2.2540    1.1591    0.0000 O   0  0  0  0  0  0  0  0  0  0  0  0
    4.0954   -2.0303    0.0000 O   0  0  0  0  0  0  0  0  0  0  0  0
    4.9204   -0.6014    0.0000 O   0  0  0  0  0  0  0  0  0  0  0  0
    3.0790    1.9841    0.0000 N   0  0  0  0  0  0  0  0  0  0  0  0
    5.2224   -1.7284    0.0000 N   0  0  0  0  0  0  0  0  0  0  0  0
    3.0790    0.3341    0.0000 C   0  0  0  0  0  0  0  0  0  0  0  0
    3.7935   -0.9034    0.0000 C   0  0  0  0  0  0  0  0  0  0  0  0
    3.7935   -0.0784    0.0000 C   0  0  0  0  0  0  0  0  0  0  0  0
    2.3645   -0.0784    0.0000 C   0  0  0  0  0  0  0  0  0  0  0  0
    3.0790   -1.3159    0.0000 C   0  0  0  0  0  0  0  0  0  0  0  0
    2.3645   -0.9034    0.0000 C   0  0  0  0  0  0  0  0  0  0  0  0
    0.0000    0.0000    0.0000 H   0  0  0  0  0  0  0  0  0  0  0  0
    0.0000    0.0000    0.0000 H   0  0  0  0  0  0  0  0  0  0  0  0
    0.0000    0.0000    0.0000 H   0  0  0  0  0  0  0  0  0  0  0  0
    0.0000    0.0000    0.0000 H   0  0  0  0  0  0  0  0  0  0  0  0
    0.0000    0.0000    0.0000 H   0  0  0  0  0  0  0  0  0  0  0  0
    0.0000    0.0000    0.0000 H   0  0  0  0  0  0  0  0  0  0  0  0
  1 14  1  0
  2 16  1  0
  3  5  2  0
  3  6  2  0
  3  9  1  0
  3 11  1  0
  4  7  2  0
  4  8  2  0
  4 10  1  0
  4 12  1  0
 11 13  2  0
 11 14  1  0
 12 13  1  0
 12 15  2  0
 14 16  2  0
 15 16  1  0
  9 17  1  0
  9 18  1  0
 10 19  1  0
 10 20  1  0
 13 21  1  0
 15 22  1  0
M  END
>  <ALOGPS_LOGP>  (1) 
0.92

>  <ALOGPS_LOGS>  (1) 
-2.88

>  <ALOGPS_SOLUBILITY>  (1) 
3.98e-01 g/l

>  <DATABASE_ID>  (1) 
DB01144

>  <DATABASE_NAME>  (1) 
drugbank

>  <DRUGBANK_ID>  (1) 
DB01144

>  <DRUG_GROUPS>  (1) 
approved

>  <EXACT_MASS>  (1) 
303.914603484

>  <FORMULA>  (1) 
C6H6Cl2N2O4S2

>  <GENERIC_NAME>  (1) 
Diclofenamide

>  <INCHI_IDENTIFIER>  (1) 
InChI=1S/C6H6Cl2N2O4S2/c7-4-1-3(15(9,11)12)2-5(6(4)8)16(10,13)14/h1-2H,(H2,9,11,12)(H2,10,13,14)

>  <INCHI_KEY>  (1) 
GJQPMPFPNINLKP-UHFFFAOYSA-N

>  <INTERNATIONAL_BRANDS>  (1) 
Oratrol

>  <JCHEM_ACCEPTOR_COUNT>  (1) 
4

>  <JCHEM_AVERAGE_POLARIZABILITY>  (1) 
25.039274514772956

>  <JCHEM_BIOAVAILABILITY>  (1) 
1

>  <JCHEM_DONOR_COUNT>  (1) 
2

>  <JCHEM_FORMAL_CHARGE>  (1) 
0

>  <JCHEM_GHOSE_FILTER>  (1) 
1

>  <JCHEM_IUPAC>  (1) 
4,5-dichlorobenzene-1,3-disulfonamide

>  <JCHEM_LOGP>  (1) 
0.3933967080000001

>  <JCHEM_MDDR_LIKE_RULE>  (1) 
0

>  <JCHEM_NUMBER_OF_RINGS>  (1) 
1

>  <JCHEM_PHYSIOLOGICAL_CHARGE>  (1) 
0

>  <JCHEM_PKA>  (1) 
8.890245583828902

>  <JCHEM_PKA_STRONGEST_ACIDIC>  (1) 
7.942036378201068

>  <JCHEM_POLAR_SURFACE_AREA>  (1) 
120.32

>  <JCHEM_REFRACTIVITY>  (1) 
59.98340000000001

>  <JCHEM_ROTATABLE_BOND_COUNT>  (1) 
2

>  <JCHEM_RULE_OF_FIVE>  (1) 
1

>  <JCHEM_TRADITIONAL_IUPAC>  (1) 
dichlorphenamide

>  <JCHEM_VEBER_RULE>  (1) 
0

>  <MOLECULAR_WEIGHT>  (1) 
305.159

>  <PRODUCTS>  (1) 
Daranide; Keveyis

>  <SECONDARY_ACCESSION_NUMBERS>  (1) 
APRD00131; DB07948

>  <SMILES>  (1) 
NS(=O)(=O)C1=CC(=C(Cl)C(Cl)=C1)S(N)(=O)=O

>  <SYNONYMS>  (1) 
1,3-disulfamoyl-4,5-dichlorobenzene; 4,5-dichloro-1,3-disulfamoylbenzene; 4,5-dichloro-m-benzenedisulfonamide; Dichlofenamide; Dichlorophenamide; Dichlorphenamide; Diclofenamida; Diclofenamidum

$$$$
