
     RDKit          2D

 60 63  0  0  1  0  0  0  0  0999 V2000
   11.1613   -9.5509    0.0000 C   0  0  0  0  0  0  0  0  0  0  0  0
   10.4469   -9.9634    0.0000 C   0  0  0  0  0  0  0  0  0  0  0  0
   10.4469  -10.7884    0.0000 C   0  0  0  0  0  0  0  0  0  0  0  0
   11.1613  -11.2009    0.0000 C   0  0  0  0  0  0  0  0  0  0  0  0
   11.8758  -10.7884    0.0000 C   0  0  0  0  0  0  0  0  0  0  0  0
   11.8758   -9.9634    0.0000 C   0  0  0  0  0  0  0  0  0  0  0  0
   12.5903   -9.5509    0.0000 C   0  0  0  0  0  0  0  0  0  0  0  0
   12.5903  -11.2009    0.0000 C   0  0  0  0  0  0  0  0  0  0  0  0
   13.3047  -10.7884    0.0000 C   0  0  0  0  0  0  0  0  0  0  0  0
   13.3047   -9.9634    0.0000 C   0  0  0  0  0  0  0  0  0  0  0  0
   14.0192   -9.5509    0.0000 C   0  0  0  0  0  0  0  0  0  0  0  0
   14.0192  -11.2009    0.0000 C   0  0  0  0  0  0  0  0  0  0  0  0
   14.7337  -10.7884    0.0000 C   0  0  0  0  0  0  0  0  0  0  0  0
   14.7337   -9.9634    0.0000 C   0  0  0  0  0  0  0  0  0  0  0  0
   15.4481   -9.5509    0.0000 C   0  0  0  0  0  0  0  0  0  0  0  0
   15.4481  -11.2009    0.0000 C   0  0  0  0  0  0  0  0  0  0  0  0
   16.1626  -10.7884    0.0000 C   0  0  0  0  0  0  0  0  0  0  0  0
   16.1626   -9.9634    0.0000 C   0  0  0  0  0  0  0  0  0  0  0  0
   11.1613   -8.7259    0.0000 N   0  0  0  0  0  0  0  0  0  0  0  0
   15.4481   -8.7259    0.0000 N   0  0  0  0  0  0  0  0  0  0  0  0
   14.7337  -11.6134    0.0000 O   0  0  0  0  0  0  0  0  0  0  0  0
   11.8758   -8.3134    0.0000 C   0  0  0  0  0  0  0  0  0  0  0  0
   10.4469   -8.3134    0.0000 C   0  0  0  0  0  0  0  0  0  0  0  0
   16.1626   -8.3134    0.0000 C   0  0  0  0  0  0  0  0  0  0  0  0
   14.7336   -8.3134    0.0000 C   0  0  0  0  0  0  0  0  0  0  0  0
   16.8771   -9.5509    0.0000 O   0  0  0  0  0  0  0  0  0  0  0  0
   11.1613  -12.0259    0.0000 O   0  0  0  0  0  0  0  0  0  0  0  0
   12.5903  -12.0259    0.0000 O   0  0  0  0  0  0  0  0  0  0  0  0
   14.0192  -12.0259    0.0000 O   0  0  0  0  0  0  0  0  0  0  0  0
   15.4481  -12.0259    0.0000 O   0  0  0  0  0  0  0  0  0  0  0  0
   16.8771  -11.2009    0.0000 C   0  0  0  0  0  0  0  0  0  0  0  0
   16.8771  -12.0259    0.0000 O   0  0  0  0  0  0  0  0  0  0  0  0
   17.5915  -10.7884    0.0000 N   0  0  0  0  0  0  0  0  0  0  0  0
    0.0000    0.0000    0.0000 H   0  0  0  0  0  0  0  0  0  0  0  0
    0.0000    0.0000    0.0000 H   0  0  0  0  0  0  0  0  0  0  0  0
    0.0000    0.0000    0.0000 H   0  0  0  0  0  0  0  0  0  0  0  0
    0.0000    0.0000    0.0000 H   0  0  0  0  0  0  0  0  0  0  0  0
    0.0000    0.0000    0.0000 H   0  0  0  0  0  0  0  0  0  0  0  0
    0.0000    0.0000    0.0000 H   0  0  0  0  0  0  0  0  0  0  0  0
    0.0000    0.0000    0.0000 H   0  0  0  0  0  0  0  0  0  0  0  0
    0.0000    0.0000    0.0000 H   0  0  0  0  0  0  0  0  0  0  0  0
    0.0000    0.0000    0.0000 H   0  0  0  0  0  0  0  0  0  0  0  0
    0.0000    0.0000    0.0000 H   0  0  0  0  0  0  0  0  0  0  0  0
    0.0000    0.0000    0.0000 H   0  0  0  0  0  0  0  0  0  0  0  0
    0.0000    0.0000    0.0000 H   0  0  0  0  0  0  0  0  0  0  0  0
    0.0000    0.0000    0.0000 H   0  0  0  0  0  0  0  0  0  0  0  0
    0.0000    0.0000    0.0000 H   0  0  0  0  0  0  0  0  0  0  0  0
    0.0000    0.0000    0.0000 H   0  0  0  0  0  0  0  0  0  0  0  0
    0.0000    0.0000    0.0000 H   0  0  0  0  0  0  0  0  0  0  0  0
    0.0000    0.0000    0.0000 H   0  0  0  0  0  0  0  0  0  0  0  0
    0.0000    0.0000    0.0000 H   0  0  0  0  0  0  0  0  0  0  0  0
    0.0000    0.0000    0.0000 H   0  0  0  0  0  0  0  0  0  0  0  0
    0.0000    0.0000    0.0000 H   0  0  0  0  0  0  0  0  0  0  0  0
    0.0000    0.0000    0.0000 H   0  0  0  0  0  0  0  0  0  0  0  0
    0.0000    0.0000    0.0000 H   0  0  0  0  0  0  0  0  0  0  0  0
    0.0000    0.0000    0.0000 H   0  0  0  0  0  0  0  0  0  0  0  0
    0.0000    0.0000    0.0000 H   0  0  0  0  0  0  0  0  0  0  0  0
    0.0000    0.0000    0.0000 H   0  0  0  0  0  0  0  0  0  0  0  0
    0.0000    0.0000    0.0000 H   0  0  0  0  0  0  0  0  0  0  0  0
    0.0000    0.0000    0.0000 H   0  0  0  0  0  0  0  0  0  0  0  0
  1  2  2  0
  2  3  1  0
  3  4  2  0
  4  5  1  0
  1  6  1  0
  7  6  1  0
  6  5  2  0
  5  8  1  0
  8  9  1  0
  7 10  1  0
 11 10  1  0
 10  9  1  0
  9 12  2  0
 12 13  1  0
 11 14  1  0
 15 14  1  0
 14 13  1  0
 13 16  1  0
 16 17  1  0
 17 18  2  0
 15 18  1  0
  1 19  1  0
 15 20  1  6
 13 21  1  6
 19 22  1  0
 19 23  1  0
 20 24  1  0
 20 25  1  0
 18 26  1  0
  4 27  1  0
  8 28  2  0
 12 29  1  0
 16 30  2  0
 17 31  1  0
 31 32  2  0
 31 33  1  0
  2 34  1  0
  3 35  1  0
  7 36  1  0
  7 37  1  0
 10 38  1  6
 11 39  1  0
 11 40  1  0
 14 41  1  6
 15 42  1  0
 21 43  1  0
 22 44  1  0
 22 45  1  0
 22 46  1  0
 23 47  1  0
 23 48  1  0
 23 49  1  0
 24 50  1  0
 24 51  1  0
 24 52  1  0
 25 53  1  0
 25 54  1  0
 25 55  1  0
 26 56  1  0
 27 57  1  0
 29 58  1  0
 33 59  1  0
 33 60  1  0
M  END
>  <ALOGPS_LOGP>  (1) 
-0.03

>  <ALOGPS_LOGS>  (1) 
-2.17

>  <ALOGPS_SOLUBILITY>  (1) 
3.07e+00 g/l

>  <DATABASE_ID>  (1) 
DB01017

>  <DATABASE_NAME>  (1) 
drugbank

>  <DRUGBANK_ID>  (1) 
DB01017

>  <DRUG_GROUPS>  (1) 
approved; investigational

>  <EXACT_MASS>  (1) 
457.184900233

>  <FORMULA>  (1) 
C23H27N3O7

>  <GENERIC_NAME>  (1) 
Minocycline

>  <INCHI_IDENTIFIER>  (1) 
InChI=1S/C23H27N3O7/c1-25(2)12-5-6-13(27)15-10(12)7-9-8-11-17(26(3)4)19(29)16(22(24)32)21(31)23(11,33)20(30)14(9)18(15)28/h5-6,9,11,17,27,29-30,33H,7-8H2,1-4H3,(H2,24,32)/t9-,11-,17-,23-/m0/s1

>  <INCHI_KEY>  (1) 
DYKFCLLONBREIL-KVUCHLLUSA-N

>  <INTERNATIONAL_BRANDS>  (1) 
Aknemin; Apo-Minocycline; Klinomycin; Minoderm; Minomycin; Minopen; Minox; Minoz; Vectrin

>  <JCHEM_ACCEPTOR_COUNT>  (1) 
9

>  <JCHEM_AVERAGE_POLARIZABILITY>  (1) 
45.89716919215125

>  <JCHEM_BIOAVAILABILITY>  (1) 
1

>  <JCHEM_DONOR_COUNT>  (1) 
5

>  <JCHEM_FORMAL_CHARGE>  (1) 
0

>  <JCHEM_GHOSE_FILTER>  (1) 
0

>  <JCHEM_IUPAC>  (1) 
(4S,4aS,5aR,12aS)-4,7-bis(dimethylamino)-3,10,12,12a-tetrahydroxy-1,11-dioxo-1,4,4a,5,5a,6,11,12a-octahydrotetracene-2-carboxamide

>  <JCHEM_LOGP>  (1) 
-3.334191589282488

>  <JCHEM_MDDR_LIKE_RULE>  (1) 
0

>  <JCHEM_NUMBER_OF_RINGS>  (1) 
4

>  <JCHEM_PHYSIOLOGICAL_CHARGE>  (1) 
-1

>  <JCHEM_PKA>  (1) 
4.451572683968626

>  <JCHEM_PKA_STRONGEST_ACIDIC>  (1) 
-2.255174634765047

>  <JCHEM_PKA_STRONGEST_BASIC>  (1) 
8.250042151008117

>  <JCHEM_POLAR_SURFACE_AREA>  (1) 
164.63000000000002

>  <JCHEM_REFRACTIVITY>  (1) 
122.54019999999993

>  <JCHEM_ROTATABLE_BOND_COUNT>  (1) 
3

>  <JCHEM_RULE_OF_FIVE>  (1) 
1

>  <JCHEM_TRADITIONAL_IUPAC>  (1) 
minocycline

>  <JCHEM_VEBER_RULE>  (1) 
0

>  <MOLECULAR_WEIGHT>  (1) 
457.4764

>  <PRODUCTS>  (1) 
Apo-minocycline Cap 100mg; Apo-minocycline Cap 50mg; Arestin; Arestin Microspheres; Dom-minocycline Capsules; Dynacin; Enca 100mg; Enca 50mg; Minocin; Minocin Cap 100mg; Minocin Cap 50mg; Minocin Kit; Minocycline; Minocycline Hydrochloride; Minocycline hydrochloride; Minocycline-100; Minocycline-50; Minolira; Mylan-minocycline; Nu-minocycline; PHL-minocycline; PMS-minocycline; Ran-minocycline; Ratio-minocycline; Riva-minocycline; Riva-minocycline 50 mg; Sandoz Minocycline; Solodyn; Teva-minocycline; Ximino

>  <SALTS>  (1) 
Minocycline hydrochloride

>  <SECONDARY_ACCESSION_NUMBERS>  (1) 
APRD00547

>  <SMILES>  (1) 
[H][C@@]12CC3=C(C(O)=CC=C3N(C)C)C(=O)C1=C(O)[C@]1(O)C(=O)C(C(N)=O)=C(O)[C@@H](N(C)C)[C@]1([H])C2

>  <SYNONYMS>  (1) 
7-Dimethylamino-6-demethyl-6-deoxytetracycline; Minociclina; Minocyclin; Minocyclinum

$$$$
