
     RDKit          2D

 31 32  0  0  0  0  0  0  0  0999 V2000
    2.8150   -1.0862    0.0000 N   0  0  0  0  0  0  0  0  0  0  0  0
    2.0808   -0.8042    0.0000 C   0  0  0  0  0  0  0  0  0  0  0  0
    2.0681    0.0205    0.0000 C   0  0  0  0  0  0  0  0  0  0  0  0
    2.8613    0.2481    0.0000 N   0  0  0  0  0  0  0  0  0  0  0  0
    3.3228   -0.4359    0.0000 C   0  0  0  0  0  0  0  0  0  0  0  0
    1.2699   -1.1917    0.0000 N   0  0  0  0  0  0  0  0  0  0  0  0
    0.6113   -0.7547    0.0000 C   0  0  0  0  0  0  0  0  0  0  0  0
    0.6399    0.0699    0.0000 N   0  0  0  0  0  0  0  0  0  0  0  0
    1.3683    0.4575    0.0000 C   0  0  0  0  0  0  0  0  0  0  0  0
    1.3553    1.2726    0.0000 O   0  0  0  0  0  0  0  0  0  0  0  0
   -0.1230   -1.1451    0.0000 N   0  0  0  0  0  0  0  0  0  0  0  0
    2.8150   -1.9111    0.0000 C   0  0  0  0  0  0  0  0  0  0  0  0
    3.5216   -2.3189    0.0000 O   0  0  0  0  0  0  0  0  0  0  0  0
    4.2368   -1.9058    0.0000 C   0  0  0  0  0  0  0  0  0  0  0  0
    4.9311   -2.3065    0.0000 C   0  0  0  0  0  0  0  0  0  0  0  0
    4.2370   -1.0692    0.0000 C   0  0  0  0  0  0  0  0  0  0  0  0
    4.9364   -0.6655    0.0000 O   0  0  0  0  0  0  0  0  0  0  0  0
    5.6356   -1.8995    0.0000 O   0  0  0  0  0  0  0  0  0  0  0  0
    0.0000    0.0000    0.0000 H   0  0  0  0  0  0  0  0  0  0  0  0
    0.0000    0.0000    0.0000 H   0  0  0  0  0  0  0  0  0  0  0  0
    0.0000    0.0000    0.0000 H   0  0  0  0  0  0  0  0  0  0  0  0
    0.0000    0.0000    0.0000 H   0  0  0  0  0  0  0  0  0  0  0  0
    0.0000    0.0000    0.0000 H   0  0  0  0  0  0  0  0  0  0  0  0
    0.0000    0.0000    0.0000 H   0  0  0  0  0  0  0  0  0  0  0  0
    0.0000    0.0000    0.0000 H   0  0  0  0  0  0  0  0  0  0  0  0
    0.0000    0.0000    0.0000 H   0  0  0  0  0  0  0  0  0  0  0  0
    0.0000    0.0000    0.0000 H   0  0  0  0  0  0  0  0  0  0  0  0
    0.0000    0.0000    0.0000 H   0  0  0  0  0  0  0  0  0  0  0  0
    0.0000    0.0000    0.0000 H   0  0  0  0  0  0  0  0  0  0  0  0
    0.0000    0.0000    0.0000 H   0  0  0  0  0  0  0  0  0  0  0  0
    0.0000    0.0000    0.0000 H   0  0  0  0  0  0  0  0  0  0  0  0
  1  2  1  0
  2  3  2  0
  3  4  1  0
  4  5  2  0
  1  5  1  0
  2  6  1  0
  6  7  2  0
  7  8  1  0
  8  9  1  0
  3  9  1  0
  9 10  2  0
  7 11  1  0
  1 12  1  0
 12 13  1  0
 13 14  1  0
 14 15  1  0
 14 16  1  0
 16 17  1  0
 15 18  1  0
  5 19  1  0
  8 20  1  0
 11 21  1  0
 11 22  1  0
 12 23  1  0
 12 24  1  0
 14 25  1  0
 15 26  1  0
 15 27  1  0
 16 28  1  0
 16 29  1  0
 17 30  1  0
 18 31  1  0
M  END
>  <ALOGPS_LOGP>  (1) 
-1.83

>  <ALOGPS_LOGS>  (1) 
-1.35

>  <ALOGPS_SOLUBILITY>  (1) 
1.15e+01 g/l

>  <DATABASE_ID>  (1) 
DB01004

>  <DATABASE_NAME>  (1) 
drugbank

>  <DRUGBANK_ID>  (1) 
DB01004

>  <DRUG_GROUPS>  (1) 
approved; investigational

>  <EXACT_MASS>  (1) 
255.096753929

>  <FORMULA>  (1) 
C9H13N5O4

>  <GENERIC_NAME>  (1) 
Ganciclovir

>  <INCHI_IDENTIFIER>  (1) 
InChI=1S/C9H13N5O4/c10-9-12-7-6(8(17)13-9)11-3-14(7)4-18-5(1-15)2-16/h3,5,15-16H,1-2,4H2,(H3,10,12,13,17)

>  <INCHI_KEY>  (1) 
IRSCQMHQWWYFCW-UHFFFAOYSA-N

>  <INTERNATIONAL_BRANDS>  (1) 
Cytovene; Vitrasert

>  <JCHEM_ACCEPTOR_COUNT>  (1) 
7

>  <JCHEM_AVERAGE_POLARIZABILITY>  (1) 
24.154164573887854

>  <JCHEM_BIOAVAILABILITY>  (1) 
1

>  <JCHEM_DONOR_COUNT>  (1) 
4

>  <JCHEM_FORMAL_CHARGE>  (1) 
0

>  <JCHEM_GHOSE_FILTER>  (1) 
0

>  <JCHEM_IUPAC>  (1) 
2-amino-9-{[(1,3-dihydroxypropan-2-yl)oxy]methyl}-6,9-dihydro-1H-purin-6-one

>  <JCHEM_LOGP>  (1) 
-2.179902508666667

>  <JCHEM_MDDR_LIKE_RULE>  (1) 
0

>  <JCHEM_NUMBER_OF_RINGS>  (1) 
2

>  <JCHEM_PHYSIOLOGICAL_CHARGE>  (1) 
0

>  <JCHEM_PKA>  (1) 
14.298583858244307

>  <JCHEM_PKA_STRONGEST_ACIDIC>  (1) 
10.159807017663518

>  <JCHEM_PKA_STRONGEST_BASIC>  (1) 
1.7601277428844484

>  <JCHEM_POLAR_SURFACE_AREA>  (1) 
134.99

>  <JCHEM_REFRACTIVITY>  (1) 
61.029300000000006

>  <JCHEM_ROTATABLE_BOND_COUNT>  (1) 
5

>  <JCHEM_RULE_OF_FIVE>  (1) 
1

>  <JCHEM_TRADITIONAL_IUPAC>  (1) 
gancyclovir

>  <JCHEM_VEBER_RULE>  (1) 
0

>  <MOLECULAR_WEIGHT>  (1) 
255.2306

>  <PRODUCTS>  (1) 
Cytovene; Cytovene - Cap 250mg; Cytovene IV; Cytovene Inj 500mg/vial; Cytovene, 500 mg; Ganciclovir; Ganciclovir for Injection; Vitrasert, Intravitreal Implant; Zirgan

>  <SALTS>  (1) 
Ganciclovir Sodium

>  <SECONDARY_ACCESSION_NUMBERS>  (1) 
APRD00263; EXPT01540

>  <SMILES>  (1) 
NC1=NC2=C(N=CN2COC(CO)CO)C(=O)N1

>  <SYNONYMS>  (1) 
2-(6-Amino-purin-9-ylmethoxy)-propane-1,3-diol; 9-[(1,3-dihydroxy-2-propoxy)methyl]guanine; GA2; Gancyclovir

$$$$
