1268
     RDKit          2D

 56 58  0  0  0  0  0  0  0  0999 V2000
    1.6500   -1.1857    0.0000 F   0  0  0  0  0  0  0  0  0  0  0  0
    7.0944    1.6702    0.0000 O   0  0  0  0  0  0  0  0  0  0  0  0
    5.8806   -2.0107    0.0000 O   0  0  0  0  0  0  0  0  0  0  0  0
   10.0675    1.7635    0.0000 N   0  0  0  0  0  0  0  0  0  0  0  0
    6.2498   -0.9455    0.0000 N   0  0  0  0  0  0  0  0  0  0  0  0
    8.1546    0.7122    0.0000 N   0  0  0  0  0  0  0  0  0  0  0  0
    4.5741   -2.6746    0.0000 N   0  0  0  0  0  0  0  0  0  0  0  0
    9.5144    1.1515    0.0000 C   0  0  0  0  0  0  0  0  0  0  0  0
    6.7949    0.2730    0.0000 C   0  0  0  0  0  0  0  0  0  0  0  0
    5.9746    0.3606    0.0000 C   0  0  0  0  0  0  0  0  0  0  0  0
    5.6377   -0.3925    0.0000 C   0  0  0  0  0  0  0  0  0  0  0  0
    8.7077    1.3244    0.0000 C   0  0  0  0  0  0  0  0  0  0  0  0
    6.9650   -0.5343    0.0000 C   0  0  0  0  0  0  0  0  0  0  0  0
   10.8742    1.5906    0.0000 C   0  0  0  0  0  0  0  0  0  0  0  0
    9.8140    2.5486    0.0000 C   0  0  0  0  0  0  0  0  0  0  0  0
    7.3480    0.8852    0.0000 C   0  0  0  0  0  0  0  0  0  0  0  0
    4.5741   -1.3467    0.0000 C   0  0  0  0  0  0  0  0  0  0  0  0
    4.8304   -0.5626    0.0000 C   0  0  0  0  0  0  0  0  0  0  0  0
    3.7935   -1.5982    0.0000 C   0  0  0  0  0  0  0  0  0  0  0  0
    5.5633    1.0758    0.0000 C   0  0  0  0  0  0  0  0  0  0  0  0
    3.7935   -2.4232    0.0000 C   0  0  0  0  0  0  0  0  0  0  0  0
    7.7181   -0.8711    0.0000 C   0  0  0  0  0  0  0  0  0  0  0  0
    5.0556   -2.0107    0.0000 C   0  0  0  0  0  0  0  0  0  0  0  0
   11.4273    2.2028    0.0000 C   0  0  0  0  0  0  0  0  0  0  0  0
   10.3671    3.1608    0.0000 C   0  0  0  0  0  0  0  0  0  0  0  0
    3.0790   -1.1857    0.0000 C   0  0  0  0  0  0  0  0  0  0  0  0
    3.0790   -2.8357    0.0000 C   0  0  0  0  0  0  0  0  0  0  0  0
    2.3645   -1.5982    0.0000 C   0  0  0  0  0  0  0  0  0  0  0  0
    2.3645   -2.4232    0.0000 C   0  0  0  0  0  0  0  0  0  0  0  0
    0.0000    0.0000    0.0000 H   0  0  0  0  0  0  0  0  0  0  0  0
    0.0000    0.0000    0.0000 H   0  0  0  0  0  0  0  0  0  0  0  0
    0.0000    0.0000    0.0000 H   0  0  0  0  0  0  0  0  0  0  0  0
    0.0000    0.0000    0.0000 H   0  0  0  0  0  0  0  0  0  0  0  0
    0.0000    0.0000    0.0000 H   0  0  0  0  0  0  0  0  0  0  0  0
    0.0000    0.0000    0.0000 H   0  0  0  0  0  0  0  0  0  0  0  0
    0.0000    0.0000    0.0000 H   0  0  0  0  0  0  0  0  0  0  0  0
    0.0000    0.0000    0.0000 H   0  0  0  0  0  0  0  0  0  0  0  0
    0.0000    0.0000    0.0000 H   0  0  0  0  0  0  0  0  0  0  0  0
    0.0000    0.0000    0.0000 H   0  0  0  0  0  0  0  0  0  0  0  0
    0.0000    0.0000    0.0000 H   0  0  0  0  0  0  0  0  0  0  0  0
    0.0000    0.0000    0.0000 H   0  0  0  0  0  0  0  0  0  0  0  0
    0.0000    0.0000    0.0000 H   0  0  0  0  0  0  0  0  0  0  0  0
    0.0000    0.0000    0.0000 H   0  0  0  0  0  0  0  0  0  0  0  0
    0.0000    0.0000    0.0000 H   0  0  0  0  0  0  0  0  0  0  0  0
    0.0000    0.0000    0.0000 H   0  0  0  0  0  0  0  0  0  0  0  0
    0.0000    0.0000    0.0000 H   0  0  0  0  0  0  0  0  0  0  0  0
    0.0000    0.0000    0.0000 H   0  0  0  0  0  0  0  0  0  0  0  0
    0.0000    0.0000    0.0000 H   0  0  0  0  0  0  0  0  0  0  0  0
    0.0000    0.0000    0.0000 H   0  0  0  0  0  0  0  0  0  0  0  0
    0.0000    0.0000    0.0000 H   0  0  0  0  0  0  0  0  0  0  0  0
    0.0000    0.0000    0.0000 H   0  0  0  0  0  0  0  0  0  0  0  0
    0.0000    0.0000    0.0000 H   0  0  0  0  0  0  0  0  0  0  0  0
    0.0000    0.0000    0.0000 H   0  0  0  0  0  0  0  0  0  0  0  0
    0.0000    0.0000    0.0000 H   0  0  0  0  0  0  0  0  0  0  0  0
    0.0000    0.0000    0.0000 H   0  0  0  0  0  0  0  0  0  0  0  0
    0.0000    0.0000    0.0000 H   0  0  0  0  0  0  0  0  0  0  0  0
  1 28  1  0
  2 16  2  0
  3 23  2  0
  4  8  1  0
  4 14  1  0
  4 15  1  0
  5 11  1  0
  5 13  1  0
  6 12  1  0
  6 16  1  0
  7 21  1  0
  7 23  1  0
  8 12  1  0
  9 10  1  0
  9 13  2  0
  9 16  1  0
 10 11  2  0
 10 20  1  0
 11 18  1  0
 13 22  1  0
 14 24  1  0
 15 25  1  0
 17 18  2  0
 17 19  1  0
 17 23  1  0
 19 21  2  0
 19 26  1  0
 21 27  1  0
 26 28  2  0
 27 29  2  0
 28 29  1  0
  5 30  1  0
  6 31  1  0
  7 32  1  0
  8 33  1  0
  8 34  1  0
 12 35  1  0
 12 36  1  0
 14 37  1  0
 14 38  1  0
 15 39  1  0
 15 40  1  0
 18 41  1  0
 20 42  1  0
 20 43  1  0
 20 44  1  0
 22 45  1  0
 22 46  1  0
 22 47  1  0
 24 48  1  0
 24 49  1  0
 24 50  1  0
 25 51  1  0
 25 52  1  0
 25 53  1  0
 26 54  1  0
 27 55  1  0
 29 56  1  0
M  END
>  <ALOGPS_LOGP>  (1) 
3.24

>  <ALOGPS_LOGS>  (1) 
-4.11

>  <ALOGPS_SOLUBILITY>  (1) 
3.08e-02 g/l

>  <DATABASE_ID>  (1) 
DB01268

>  <DATABASE_NAME>  (1) 
drugbank

>  <DRUGBANK_ID>  (1) 
DB01268

>  <DRUG_GROUPS>  (1) 
approved; investigational

>  <EXACT_MASS>  (1) 
398.211804333

>  <FORMULA>  (1) 
C22H27FN4O2

>  <GENERIC_NAME>  (1) 
Sunitinib

>  <INCHI_IDENTIFIER>  (1) 
InChI=1S/C22H27FN4O2/c1-5-27(6-2)10-9-24-22(29)20-13(3)19(25-14(20)4)12-17-16-11-15(23)7-8-18(16)26-21(17)28/h7-8,11-12,25H,5-6,9-10H2,1-4H3,(H,24,29)(H,26,28)/b17-12-

>  <INCHI_KEY>  (1) 
WINHZLLDWRZWRT-ATVHPVEESA-N

>  <JCHEM_ACCEPTOR_COUNT>  (1) 
3

>  <JCHEM_AVERAGE_POLARIZABILITY>  (1) 
44.319045037443416

>  <JCHEM_BIOAVAILABILITY>  (1) 
1

>  <JCHEM_DONOR_COUNT>  (1) 
3

>  <JCHEM_FORMAL_CHARGE>  (1) 
0

>  <JCHEM_GHOSE_FILTER>  (1) 
1

>  <JCHEM_IUPAC>  (1) 
N-[2-(diethylamino)ethyl]-5-{[(3Z)-5-fluoro-2-oxo-2,3-dihydro-1H-indol-3-ylidene]methyl}-2,4-dimethyl-1H-pyrrole-3-carboxamide

>  <JCHEM_LOGP>  (1) 
2.9273768136666662

>  <JCHEM_MDDR_LIKE_RULE>  (1) 
1

>  <JCHEM_NUMBER_OF_RINGS>  (1) 
3

>  <JCHEM_PHYSIOLOGICAL_CHARGE>  (1) 
1

>  <JCHEM_PKA>  (1) 
14.237659583379774

>  <JCHEM_PKA_STRONGEST_ACIDIC>  (1) 
11.462899232702135

>  <JCHEM_PKA_STRONGEST_BASIC>  (1) 
9.0426929039079

>  <JCHEM_POLAR_SURFACE_AREA>  (1) 
77.23

>  <JCHEM_REFRACTIVITY>  (1) 
116.26629999999999

>  <JCHEM_ROTATABLE_BOND_COUNT>  (1) 
7

>  <JCHEM_RULE_OF_FIVE>  (1) 
1

>  <JCHEM_TRADITIONAL_IUPAC>  (1) 
sunitinib

>  <JCHEM_VEBER_RULE>  (1) 
0

>  <MOLECULAR_WEIGHT>  (1) 
398.4738

>  <PRODUCTS>  (1) 
Sutent

>  <SALTS>  (1) 
Sunitinib malate

>  <SECONDARY_ACCESSION_NUMBERS>  (1) 
DB07417

>  <SMILES>  (1) 
CCN(CC)CCNC(=O)C1=C(C)NC(\C=C2/C(=O)NC3=C2C=C(F)C=C3)=C1C

>  <SYNONYMS>  (1) 
Sunitinibum

$$$$
