1610
     RDKit          2D

 47 48  0  0  1  0  0  0  0  0999 V2000
    6.0807   -0.2624    0.0000 O   0  0  0  0  0  0  0  0  0  0  0  0
    7.4006    1.4761    0.0000 O   0  0  0  0  0  0  0  0  0  0  0  0
    6.0424    1.9201    0.0000 O   0  0  0  0  0  0  0  0  0  0  0  0
    8.7589    1.0322    0.0000 O   0  0  0  0  0  0  0  0  0  0  0  0
    3.5220   -3.5307    0.0000 O   0  0  0  0  0  0  0  0  0  0  0  0
    5.0171   -1.2167    0.0000 N   0  0  0  0  0  0  0  0  0  0  0  0
    7.9132    3.0445    0.0000 N   0  0  0  0  0  0  0  0  0  0  0  0
    3.5220   -1.0556    0.0000 N   0  0  0  0  0  0  0  0  0  0  0  0
    5.0171   -2.5446    0.0000 N   0  0  0  0  0  0  0  0  0  0  0  0
    2.8075   -2.2931    0.0000 N   0  0  0  0  0  0  0  0  0  0  0  0
    2.0930   -1.0556    0.0000 N   0  0  0  0  0  0  0  0  0  0  0  0
    9.2715    2.6005    0.0000 C   0  0  0  0  0  0  0  0  0  0  0  0
    8.4642    2.4304    0.0000 C   0  0  0  0  0  0  0  0  0  0  0  0
    6.3370    0.5217    0.0000 C   0  0  0  0  0  0  0  0  0  0  0  0
    7.1443    0.6919    0.0000 C   0  0  0  0  0  0  0  0  0  0  0  0
    9.8224    1.9865    0.0000 C   0  0  0  0  0  0  0  0  0  0  0  0
    9.5278    3.3848    0.0000 C   0  0  0  0  0  0  0  0  0  0  0  0
    8.2079    1.6462    0.0000 C   0  0  0  0  0  0  0  0  0  0  0  0
    5.2734   -0.4326    0.0000 C   0  0  0  0  0  0  0  0  0  0  0  0
    5.7860    1.1358    0.0000 C   0  0  0  0  0  0  0  0  0  0  0  0
    4.2365   -1.4681    0.0000 C   0  0  0  0  0  0  0  0  0  0  0  0
    4.2365   -2.2931    0.0000 C   0  0  0  0  0  0  0  0  0  0  0  0
    5.4986   -1.8806    0.0000 C   0  0  0  0  0  0  0  0  0  0  0  0
    3.5220   -2.7056    0.0000 C   0  0  0  0  0  0  0  0  0  0  0  0
    2.8075   -1.4681    0.0000 C   0  0  0  0  0  0  0  0  0  0  0  0
    0.0000    0.0000    0.0000 H   0  0  0  0  0  0  0  0  0  0  0  0
    0.0000    0.0000    0.0000 H   0  0  0  0  0  0  0  0  0  0  0  0
    0.0000    0.0000    0.0000 H   0  0  0  0  0  0  0  0  0  0  0  0
    0.0000    0.0000    0.0000 H   0  0  0  0  0  0  0  0  0  0  0  0
    0.0000    0.0000    0.0000 H   0  0  0  0  0  0  0  0  0  0  0  0
    0.0000    0.0000    0.0000 H   0  0  0  0  0  0  0  0  0  0  0  0
    0.0000    0.0000    0.0000 H   0  0  0  0  0  0  0  0  0  0  0  0
    0.0000    0.0000    0.0000 H   0  0  0  0  0  0  0  0  0  0  0  0
    0.0000    0.0000    0.0000 H   0  0  0  0  0  0  0  0  0  0  0  0
    0.0000    0.0000    0.0000 H   0  0  0  0  0  0  0  0  0  0  0  0
    0.0000    0.0000    0.0000 H   0  0  0  0  0  0  0  0  0  0  0  0
    0.0000    0.0000    0.0000 H   0  0  0  0  0  0  0  0  0  0  0  0
    0.0000    0.0000    0.0000 H   0  0  0  0  0  0  0  0  0  0  0  0
    0.0000    0.0000    0.0000 H   0  0  0  0  0  0  0  0  0  0  0  0
    0.0000    0.0000    0.0000 H   0  0  0  0  0  0  0  0  0  0  0  0
    0.0000    0.0000    0.0000 H   0  0  0  0  0  0  0  0  0  0  0  0
    0.0000    0.0000    0.0000 H   0  0  0  0  0  0  0  0  0  0  0  0
    0.0000    0.0000    0.0000 H   0  0  0  0  0  0  0  0  0  0  0  0
    0.0000    0.0000    0.0000 H   0  0  0  0  0  0  0  0  0  0  0  0
    0.0000    0.0000    0.0000 H   0  0  0  0  0  0  0  0  0  0  0  0
    0.0000    0.0000    0.0000 H   0  0  0  0  0  0  0  0  0  0  0  0
    0.0000    0.0000    0.0000 H   0  0  0  0  0  0  0  0  0  0  0  0
  1 14  1  0
  1 19  1  0
  2 15  1  0
  2 18  1  0
  3 20  1  0
  4 18  2  0
  5 24  2  0
  6 19  1  0
  6 21  1  0
  6 23  1  0
 13  7  1  1
  8 21  1  0
  8 25  1  0
  9 22  1  0
  9 23  2  0
 10 24  1  0
 10 25  2  0
 11 25  1  0
 12 13  1  0
 12 16  1  0
 12 17  1  0
 13 18  1  0
 14 15  1  0
 14 20  1  0
 21 22  2  0
 22 24  1  0
  3 26  1  0
  7 27  1  0
  7 28  1  0
  8 29  1  0
 11 30  1  0
 11 31  1  0
 12 32  1  0
 13 33  1  0
 14 34  1  0
 15 35  1  0
 15 36  1  0
 16 37  1  0
 16 38  1  0
 16 39  1  0
 17 40  1  0
 17 41  1  0
 17 42  1  0
 19 43  1  0
 19 44  1  0
 20 45  1  0
 20 46  1  0
 23 47  1  0
M  END
>  <ALOGPS_LOGP>  (1) 
-0.81

>  <ALOGPS_LOGS>  (1) 
-1.87

>  <ALOGPS_SOLUBILITY>  (1) 
4.79e+00 g/l

>  <DATABASE_ID>  (1) 
DB01610

>  <DATABASE_NAME>  (1) 
drugbank

>  <DRUGBANK_ID>  (1) 
DB01610

>  <DRUG_GROUPS>  (1) 
approved; investigational

>  <EXACT_MASS>  (1) 
354.165167844

>  <FORMULA>  (1) 
C14H22N6O5

>  <GENERIC_NAME>  (1) 
Valganciclovir

>  <INCHI_IDENTIFIER>  (1) 
InChI=1S/C14H22N6O5/c1-7(2)9(15)13(23)24-4-8(3-21)25-6-20-5-17-10-11(20)18-14(16)19-12(10)22/h5,7-9,21H,3-4,6,15H2,1-2H3,(H3,16,18,19,22)/t8?,9-/m0/s1

>  <INCHI_KEY>  (1) 
WPVFJKSGQUFQAP-GKAPJAKFSA-N

>  <JCHEM_ACCEPTOR_COUNT>  (1) 
9

>  <JCHEM_AVERAGE_POLARIZABILITY>  (1) 
34.88428417230294

>  <JCHEM_BIOAVAILABILITY>  (1) 
1

>  <JCHEM_DONOR_COUNT>  (1) 
4

>  <JCHEM_FORMAL_CHARGE>  (1) 
0

>  <JCHEM_GHOSE_FILTER>  (1) 
0

>  <JCHEM_IUPAC>  (1) 
2-[(2-amino-6-oxo-6,9-dihydro-3H-purin-9-yl)methoxy]-3-hydroxypropyl (2S)-2-amino-3-methylbutanoate

>  <JCHEM_LOGP>  (1) 
-1.081859997862466

>  <JCHEM_MDDR_LIKE_RULE>  (1) 
0

>  <JCHEM_NUMBER_OF_RINGS>  (1) 
2

>  <JCHEM_PHYSIOLOGICAL_CHARGE>  (1) 
1

>  <JCHEM_PKA>  (1) 
14.597971429050922

>  <JCHEM_PKA_STRONGEST_ACIDIC>  (1) 
8.103862330035172

>  <JCHEM_PKA_STRONGEST_BASIC>  (1) 
7.360675744087066

>  <JCHEM_POLAR_SURFACE_AREA>  (1) 
167.08

>  <JCHEM_REFRACTIVITY>  (1) 
86.59660000000001

>  <JCHEM_ROTATABLE_BOND_COUNT>  (1) 
9

>  <JCHEM_RULE_OF_FIVE>  (1) 
1

>  <JCHEM_TRADITIONAL_IUPAC>  (1) 
valganciclovir

>  <JCHEM_VEBER_RULE>  (1) 
0

>  <MOLECULAR_WEIGHT>  (1) 
354.3617

>  <PRODUCTS>  (1) 
Apo-valganciclovir; Auro-valganciclovir; Mylan-valganciclovir; Nat-valganciclovir; Teva-valganciclovir; Valcyte; Valganciclovir; Valganciclovir Hydrochloride; Valganciclovir hydrochloride for Oral

>  <SALTS>  (1) 
Valganciclovir hydrochloride

>  <SMILES>  (1) 
CC(C)[C@H](N)C(=O)OCC(CO)OCN1C=NC2=C1NC(N)=NC2=O

$$$$
