1208
     RDKit          2D

 50 53  0  0  1  0  0  0  0  0999 V2000
    5.2224   -1.1591    0.0000 F   0  0  0  0  0  0  0  0  0  0  0  0
    3.7935    1.3159    0.0000 F   0  0  0  0  0  0  0  0  0  0  0  0
    6.6649    2.1695    0.0000 O   0  0  0  0  0  0  0  0  0  0  0  0
    8.8509    0.9261    0.0000 O   0  0  0  0  0  0  0  0  0  0  0  0
    8.1317    2.1608    0.0000 O   0  0  0  0  0  0  0  0  0  0  0  0
    6.6745   -0.3628    0.0000 N   0  0  0  0  0  0  0  0  0  0  0  0
    3.7935   -0.3341    0.0000 N   0  0  0  0  0  0  0  0  0  0  0  0
    2.3645   -1.1591    0.0000 N   0  0  0  0  0  0  0  0  0  0  0  0
    5.2224    2.1409    0.0000 N   0  0  0  0  0  0  0  0  0  0  0  0
    6.6649   -1.1877    0.0000 C   0  0  0  0  0  0  0  0  0  0  0  0
    7.0692   -1.9069    0.0000 C   0  0  0  0  0  0  0  0  0  0  0  0
    6.2442   -1.8974    0.0000 C   0  0  0  0  0  0  0  0  0  0  0  0
    5.9370    0.0784    0.0000 C   0  0  0  0  0  0  0  0  0  0  0  0
    3.0790   -1.5717    0.0000 C   0  0  0  0  0  0  0  0  0  0  0  0
    2.3645   -0.3341    0.0000 C   0  0  0  0  0  0  0  0  0  0  0  0
    3.7935   -1.1591    0.0000 C   0  0  0  0  0  0  0  0  0  0  0  0
    3.0790    0.0784    0.0000 C   0  0  0  0  0  0  0  0  0  0  0  0
    4.5080    0.0784    0.0000 C   0  0  0  0  0  0  0  0  0  0  0  0
    7.4220    0.0612    0.0000 C   0  0  0  0  0  0  0  0  0  0  0  0
    5.9370    0.9034    0.0000 C   0  0  0  0  0  0  0  0  0  0  0  0
    5.2224   -0.3341    0.0000 C   0  0  0  0  0  0  0  0  0  0  0  0
    5.2224    1.3159    0.0000 C   0  0  0  0  0  0  0  0  0  0  0  0
    7.4220    0.9206    0.0000 C   0  0  0  0  0  0  0  0  0  0  0  0
    4.5080    0.9034    0.0000 C   0  0  0  0  0  0  0  0  0  0  0  0
    6.6745    1.3445    0.0000 C   0  0  0  0  0  0  0  0  0  0  0  0
    3.0790   -2.3967    0.0000 C   0  0  0  0  0  0  0  0  0  0  0  0
    1.6500    0.0784    0.0000 C   0  0  0  0  0  0  0  0  0  0  0  0
    8.1349    1.3358    0.0000 C   0  0  0  0  0  0  0  0  0  0  0  0
    0.0000    0.0000    0.0000 H   0  0  0  0  0  0  0  0  0  0  0  0
    0.0000    0.0000    0.0000 H   0  0  0  0  0  0  0  0  0  0  0  0
    0.0000    0.0000    0.0000 H   0  0  0  0  0  0  0  0  0  0  0  0
    0.0000    0.0000    0.0000 H   0  0  0  0  0  0  0  0  0  0  0  0
    0.0000    0.0000    0.0000 H   0  0  0  0  0  0  0  0  0  0  0  0
    0.0000    0.0000    0.0000 H   0  0  0  0  0  0  0  0  0  0  0  0
    0.0000    0.0000    0.0000 H   0  0  0  0  0  0  0  0  0  0  0  0
    0.0000    0.0000    0.0000 H   0  0  0  0  0  0  0  0  0  0  0  0
    0.0000    0.0000    0.0000 H   0  0  0  0  0  0  0  0  0  0  0  0
    0.0000    0.0000    0.0000 H   0  0  0  0  0  0  0  0  0  0  0  0
    0.0000    0.0000    0.0000 H   0  0  0  0  0  0  0  0  0  0  0  0
    0.0000    0.0000    0.0000 H   0  0  0  0  0  0  0  0  0  0  0  0
    0.0000    0.0000    0.0000 H   0  0  0  0  0  0  0  0  0  0  0  0
    0.0000    0.0000    0.0000 H   0  0  0  0  0  0  0  0  0  0  0  0
    0.0000    0.0000    0.0000 H   0  0  0  0  0  0  0  0  0  0  0  0
    0.0000    0.0000    0.0000 H   0  0  0  0  0  0  0  0  0  0  0  0
    0.0000    0.0000    0.0000 H   0  0  0  0  0  0  0  0  0  0  0  0
    0.0000    0.0000    0.0000 H   0  0  0  0  0  0  0  0  0  0  0  0
    0.0000    0.0000    0.0000 H   0  0  0  0  0  0  0  0  0  0  0  0
    0.0000    0.0000    0.0000 H   0  0  0  0  0  0  0  0  0  0  0  0
    0.0000    0.0000    0.0000 H   0  0  0  0  0  0  0  0  0  0  0  0
    0.0000    0.0000    0.0000 H   0  0  0  0  0  0  0  0  0  0  0  0
  1 21  1  0
  2 24  1  0
  3 25  2  0
  4 28  1  0
  5 28  2  0
  6 10  1  0
  6 13  1  0
  6 19  1  0
  7 16  1  0
  7 17  1  0
  7 18  1  0
  8 14  1  0
  8 15  1  0
  9 22  1  0
 10 11  1  0
 10 12  1  0
 11 12  1  0
 13 20  2  0
 13 21  1  0
 14 16  1  0
 14 26  1  6
 15 17  1  0
 15 27  1  6
 18 21  2  0
 18 24  1  0
 19 23  2  0
 20 22  1  0
 20 25  1  0
 22 24  2  0
 23 25  1  0
 23 28  1  0
  4 29  1  0
  8 30  1  0
  9 31  1  0
  9 32  1  0
 10 33  1  0
 11 34  1  0
 11 35  1  0
 12 36  1  0
 12 37  1  0
 14 38  1  0
 15 39  1  0
 16 40  1  0
 16 41  1  0
 17 42  1  0
 17 43  1  0
 19 44  1  0
 26 45  1  0
 26 46  1  0
 26 47  1  0
 27 48  1  0
 27 49  1  0
 27 50  1  0
M  END
>  <ALOGPS_LOGP>  (1) 
-0.07

>  <ALOGPS_LOGS>  (1) 
-3.54

>  <ALOGPS_SOLUBILITY>  (1) 
1.13e-01 g/l

>  <DATABASE_ID>  (1) 
DB01208

>  <DATABASE_NAME>  (1) 
drugbank

>  <DRUGBANK_ID>  (1) 
DB01208

>  <DRUG_GROUPS>  (1) 
approved; investigational

>  <EXACT_MASS>  (1) 
392.165997

>  <FORMULA>  (1) 
C19H22F2N4O3

>  <GENERIC_NAME>  (1) 
Sparfloxacin

>  <INCHI_IDENTIFIER>  (1) 
InChI=1S/C19H22F2N4O3/c1-8-5-24(6-9(2)23-8)17-13(20)15(22)12-16(14(17)21)25(10-3-4-10)7-11(18(12)26)19(27)28/h7-10,23H,3-6,22H2,1-2H3,(H,27,28)/t8-,9+

>  <INCHI_KEY>  (1) 
DZZWHBIBMUVIIW-DTORHVGOSA-N

>  <JCHEM_ACCEPTOR_COUNT>  (1) 
7

>  <JCHEM_AVERAGE_POLARIZABILITY>  (1) 
38.978715462680256

>  <JCHEM_BIOAVAILABILITY>  (1) 
1

>  <JCHEM_DONOR_COUNT>  (1) 
3

>  <JCHEM_FORMAL_CHARGE>  (1) 
0

>  <JCHEM_GHOSE_FILTER>  (1) 
1

>  <JCHEM_IUPAC>  (1) 
5-amino-1-cyclopropyl-7-[(3R,5S)-3,5-dimethylpiperazin-1-yl]-6,8-difluoro-4-oxo-1,4-dihydroquinoline-3-carboxylic acid

>  <JCHEM_LOGP>  (1) 
-0.04322814690873515

>  <JCHEM_MDDR_LIKE_RULE>  (1) 
0

>  <JCHEM_NUMBER_OF_RINGS>  (1) 
4

>  <JCHEM_PHYSIOLOGICAL_CHARGE>  (1) 
0

>  <JCHEM_PKA>  (1) 
15.891070633577437

>  <JCHEM_PKA_STRONGEST_ACIDIC>  (1) 
5.753208582916295

>  <JCHEM_PKA_STRONGEST_BASIC>  (1) 
8.791968707803683

>  <JCHEM_POLAR_SURFACE_AREA>  (1) 
98.89999999999999

>  <JCHEM_REFRACTIVITY>  (1) 
101.6938

>  <JCHEM_ROTATABLE_BOND_COUNT>  (1) 
3

>  <JCHEM_RULE_OF_FIVE>  (1) 
1

>  <JCHEM_TRADITIONAL_IUPAC>  (1) 
sparfloxacin

>  <JCHEM_VEBER_RULE>  (1) 
0

>  <MOLECULAR_WEIGHT>  (1) 
392.3998

>  <SECONDARY_ACCESSION_NUMBERS>  (1) 
APRD01231

>  <SMILES>  (1) 
C[C@H]1CN(C[C@@H](C)N1)C1=C(F)C(N)=C2C(=O)C(=CN(C3CC3)C2=C1F)C(O)=O

$$$$
