
     RDKit          2D

 65 69  0  0  1  0  0  0  0  0999 V2000
   13.5340   -5.1807    0.0000 C   0  0  0  0  0  0  0  0  0  0  0  0
   12.7464   -5.4288    0.0000 C   0  0  0  0  0  0  0  0  0  0  0  0
   14.0121   -5.8531    0.0000 C   0  0  0  0  0  0  0  0  0  0  0  0
   14.0228   -4.5190    0.0000 O   0  0  0  0  0  0  0  0  0  0  0  0
   13.5626   -4.0554    0.0000 C   0  0  0  0  0  0  0  0  0  0  0  0
   12.7392   -6.2485    0.0000 C   0  0  0  0  0  0  0  0  0  0  0  0
   12.0418   -5.0117    0.0000 C   0  0  0  0  0  0  0  0  0  0  0  0
   12.7283   -4.4364    0.0000 C   0  0  0  0  0  0  0  0  0  0  0  0
   13.5194   -6.5109    0.0000 C   0  0  0  0  0  0  0  0  0  0  0  0
   14.7923   -5.6049    0.0000 O   0  0  0  0  0  0  0  0  0  0  0  0
   14.8031   -4.7851    0.0000 C   0  0  0  0  0  0  0  0  0  0  0  0
   12.7464   -3.5520    0.0000 C   0  0  0  0  0  0  0  0  0  0  0  0
   12.0274   -6.6584    0.0000 C   0  0  0  0  0  0  0  0  0  0  0  0
   11.3262   -5.4181    0.0000 C   0  0  0  0  0  0  0  0  0  0  0  0
   15.5293   -4.3537    0.0000 C   0  0  0  0  0  0  0  0  0  0  0  0
   12.7318   -2.5956    0.0000 O   0  0  0  0  0  0  0  0  0  0  0  0
   11.3190   -6.2413    0.0000 C   0  0  0  0  0  0  0  0  0  0  0  0
   12.0274   -7.4853    0.0000 C   0  0  0  0  0  0  0  0  0  0  0  0
   10.4669   -4.7780    0.0000 O   0  0  0  0  0  0  0  0  0  0  0  0
   16.1946   -4.7312    0.0000 C   0  0  0  0  0  0  0  0  0  0  0  0
   10.5963   -6.6477    0.0000 C   0  0  0  0  0  0  0  0  0  0  0  0
   11.3118   -7.8953    0.0000 C   0  0  0  0  0  0  0  0  0  0  0  0
   16.9063   -4.3070    0.0000 C   0  0  0  0  0  0  0  0  0  0  0  0
   10.5928   -7.4780    0.0000 C   0  0  0  0  0  0  0  0  0  0  0  0
    9.8843   -6.2378    0.0000 C   0  0  0  0  0  0  0  0  0  0  0  0
   10.5891   -5.6517    0.0000 C   0  0  0  0  0  0  0  0  0  0  0  0
    9.8843   -7.8917    0.0000 C   0  0  0  0  0  0  0  0  0  0  0  0
    9.1688   -6.6477    0.0000 C   0  0  0  0  0  0  0  0  0  0  0  0
    9.1688   -7.4780    0.0000 C   0  0  0  0  0  0  0  0  0  0  0  0
    8.4498   -7.8917    0.0000 O   0  0  0  0  0  0  0  0  0  0  0  0
   14.2771   -3.6428    0.0000 O   0  0  0  0  0  0  0  0  0  0  0  0
    0.0000    0.0000    0.0000 H   0  0  0  0  0  0  0  0  0  0  0  0
    0.0000    0.0000    0.0000 H   0  0  0  0  0  0  0  0  0  0  0  0
    0.0000    0.0000    0.0000 H   0  0  0  0  0  0  0  0  0  0  0  0
    0.0000    0.0000    0.0000 H   0  0  0  0  0  0  0  0  0  0  0  0
    0.0000    0.0000    0.0000 H   0  0  0  0  0  0  0  0  0  0  0  0
    0.0000    0.0000    0.0000 H   0  0  0  0  0  0  0  0  0  0  0  0
    0.0000    0.0000    0.0000 H   0  0  0  0  0  0  0  0  0  0  0  0
    0.0000    0.0000    0.0000 H   0  0  0  0  0  0  0  0  0  0  0  0
    0.0000    0.0000    0.0000 H   0  0  0  0  0  0  0  0  0  0  0  0
    0.0000    0.0000    0.0000 H   0  0  0  0  0  0  0  0  0  0  0  0
    0.0000    0.0000    0.0000 H   0  0  0  0  0  0  0  0  0  0  0  0
    0.0000    0.0000    0.0000 H   0  0  0  0  0  0  0  0  0  0  0  0
    0.0000    0.0000    0.0000 H   0  0  0  0  0  0  0  0  0  0  0  0
    0.0000    0.0000    0.0000 H   0  0  0  0  0  0  0  0  0  0  0  0
    0.0000    0.0000    0.0000 H   0  0  0  0  0  0  0  0  0  0  0  0
    0.0000    0.0000    0.0000 H   0  0  0  0  0  0  0  0  0  0  0  0
    0.0000    0.0000    0.0000 H   0  0  0  0  0  0  0  0  0  0  0  0
    0.0000    0.0000    0.0000 H   0  0  0  0  0  0  0  0  0  0  0  0
    0.0000    0.0000    0.0000 H   0  0  0  0  0  0  0  0  0  0  0  0
    0.0000    0.0000    0.0000 H   0  0  0  0  0  0  0  0  0  0  0  0
    0.0000    0.0000    0.0000 H   0  0  0  0  0  0  0  0  0  0  0  0
    0.0000    0.0000    0.0000 H   0  0  0  0  0  0  0  0  0  0  0  0
    0.0000    0.0000    0.0000 H   0  0  0  0  0  0  0  0  0  0  0  0
    0.0000    0.0000    0.0000 H   0  0  0  0  0  0  0  0  0  0  0  0
    0.0000    0.0000    0.0000 H   0  0  0  0  0  0  0  0  0  0  0  0
    0.0000    0.0000    0.0000 H   0  0  0  0  0  0  0  0  0  0  0  0
    0.0000    0.0000    0.0000 H   0  0  0  0  0  0  0  0  0  0  0  0
    0.0000    0.0000    0.0000 H   0  0  0  0  0  0  0  0  0  0  0  0
    0.0000    0.0000    0.0000 H   0  0  0  0  0  0  0  0  0  0  0  0
    0.0000    0.0000    0.0000 H   0  0  0  0  0  0  0  0  0  0  0  0
    0.0000    0.0000    0.0000 H   0  0  0  0  0  0  0  0  0  0  0  0
    0.0000    0.0000    0.0000 H   0  0  0  0  0  0  0  0  0  0  0  0
    0.0000    0.0000    0.0000 H   0  0  0  0  0  0  0  0  0  0  0  0
    0.0000    0.0000    0.0000 H   0  0  0  0  0  0  0  0  0  0  0  0
  1  2  1  0
  1  3  1  0
  1  4  1  0
  1  5  1  1
  2  6  1  0
  2  7  1  0
  2  8  1  1
  3  9  1  0
  3 10  1  0
  4 11  1  0
  5 12  1  0
  6 13  1  0
  7 14  1  0
 11 15  1  0
 12 16  1  0
 13 17  1  0
 13 18  1  0
 14 19  1  1
 15 20  1  0
 17 21  1  0
 18 22  1  0
 20 23  1  0
 21 24  1  0
 21 25  1  0
 21 26  1  1
 24 27  2  0
 25 28  2  0
 27 29  1  0
 29 30  2  0
  6  9  1  0
 10 11  1  0
 14 17  1  0
 22 24  1  0
 28 29  1  0
  5 31  2  0
  3 32  1  1
  6 33  1  6
  7 34  1  0
  7 35  1  0
  8 36  1  0
  8 37  1  0
  8 38  1  0
  9 39  1  0
  9 40  1  0
 11 41  1  0
 12 42  1  0
 12 43  1  0
 13 44  1  1
 14 45  1  0
 15 46  1  0
 15 47  1  0
 16 48  1  0
 17 49  1  6
 18 50  1  0
 18 51  1  0
 19 52  1  0
 20 53  1  0
 20 54  1  0
 22 55  1  0
 22 56  1  0
 23 57  1  0
 23 58  1  0
 23 59  1  0
 25 60  1  0
 26 61  1  0
 26 62  1  0
 26 63  1  0
 27 64  1  0
 28 65  1  0
M  END
>  <ALOGPS_LOGP>  (1) 
2.42

>  <ALOGPS_LOGS>  (1) 
-3.97

>  <ALOGPS_SOLUBILITY>  (1) 
4.57e-02 g/l

>  <DATABASE_ID>  (1) 
DB01222

>  <DATABASE_NAME>  (1) 
drugbank

>  <DRUGBANK_ID>  (1) 
DB01222

>  <DRUG_GROUPS>  (1) 
approved

>  <EXACT_MASS>  (1) 
430.23553882

>  <FORMULA>  (1) 
C25H34O6

>  <GENERIC_NAME>  (1) 
Budesonide

>  <INCHI_IDENTIFIER>  (1) 
InChI=1S/C25H34O6/c1-4-5-21-30-20-11-17-16-7-6-14-10-15(27)8-9-23(14,2)22(16)18(28)12-24(17,3)25(20,31-21)19(29)13-26/h8-10,16-18,20-22,26,28H,4-7,11-13H2,1-3H3/t16-,17-,18-,20+,21?,22+,23-,24-,25+/m0/s1

>  <INCHI_KEY>  (1) 
VOVIALXJUBGFJZ-KWVAZRHASA-N

>  <INTERNATIONAL_BRANDS>  (1) 
Bidien; Budeson; Budicort; ENTOCORT; Noex; Pulmicort; Rhinocort; Rhinosol; Spirocort

>  <JCHEM_ACCEPTOR_COUNT>  (1) 
6

>  <JCHEM_AVERAGE_POLARIZABILITY>  (1) 
47.10869494523938

>  <JCHEM_BIOAVAILABILITY>  (1) 
1

>  <JCHEM_DONOR_COUNT>  (1) 
2

>  <JCHEM_FORMAL_CHARGE>  (1) 
0

>  <JCHEM_GHOSE_FILTER>  (1) 
1

>  <JCHEM_IUPAC>  (1) 
(1S,2S,4R,8S,9S,11S,12S,13R)-11-hydroxy-8-(2-hydroxyacetyl)-9,13-dimethyl-6-propyl-5,7-dioxapentacyclo[10.8.0.0²,⁹.0⁴,⁸.0¹³,¹⁸]icosa-14,17-dien-16-one

>  <JCHEM_LOGP>  (1) 
2.733890000333333

>  <JCHEM_MDDR_LIKE_RULE>  (1) 
0

>  <JCHEM_NUMBER_OF_RINGS>  (1) 
5

>  <JCHEM_PHYSIOLOGICAL_CHARGE>  (1) 
0

>  <JCHEM_PKA>  (1) 
14.91260526388513

>  <JCHEM_PKA_STRONGEST_ACIDIC>  (1) 
13.743137811958874

>  <JCHEM_PKA_STRONGEST_BASIC>  (1) 
-2.851415360050529

>  <JCHEM_POLAR_SURFACE_AREA>  (1) 
93.06

>  <JCHEM_REFRACTIVITY>  (1) 
116.10979999999998

>  <JCHEM_ROTATABLE_BOND_COUNT>  (1) 
4

>  <JCHEM_RULE_OF_FIVE>  (1) 
1

>  <JCHEM_TRADITIONAL_IUPAC>  (1) 
budesonide

>  <JCHEM_VEBER_RULE>  (1) 
0

>  <MOLECULAR_WEIGHT>  (1) 
430.5339

>  <PRODUCTS>  (1) 
Budesonide; Budesonide (Enteric Coated); Budesonide (enteric Coated); Budesonide (enteric coated); Budesonide Inhalation; Budesonide Inhalation Suspension; Budesonide Nasal; Budesonide/formoterol Teva; Childrens RHINOCORT Allergy; Cortiment; Entocort; Entocort EC; Entocort Enema; Mylan-budesonide AQ; Pulmicort Flexhaler; Pulmicort Nebuamp 0.125 mg/ml; Pulmicort Nebuamp 0.25 mg/ml; Pulmicort Nebuamp 0.5 mg/ml; Pulmicort Respules; Pulmicort Turbuhaler 100 Mcg/dose; Pulmicort Turbuhaler 200 Mcg/dose; Pulmicort Turbuhaler 400 Mcg/dose; RHINOCORT Allergy; Rhinocort Aqua; Rhinocort Aqua 100mcg; Rhinocort Turbuhaler 100 Mcg/dose; Symbicort; Symbicort 100 Turbuhaler; Symbicort 200 Turbuhaler; Symbicort Forte Turbuhaler; Teva-budesonide; Uceris

>  <SECONDARY_ACCESSION_NUMBERS>  (1) 
APRD00442

>  <SMILES>  (1) 
[H][C@@]12C[C@H]3OC(CCC)O[C@@]3(C(=O)CO)[C@@]1(C)C[C@H](O)[C@@]1([H])[C@@]2([H])CCC2=CC(=O)C=C[C@]12C

$$$$
