1243
     RDKit          2D

 18 19  0  0  0  0  0  0  0  0999 V2000
    3.0786    1.7777    0.0000 Cl  0  0  0  0  0  0  0  0  0  0  0  0
    1.6498   -0.6970    0.0000 Cl  0  0  0  0  0  0  0  0  0  0  0  0
    3.0786   -1.5219    0.0000 O   0  0  0  0  0  0  0  0  0  0  0  0
    4.5303   -0.7257    0.0000 N   0  0  0  0  0  0  0  0  0  0  0  0
    3.7929    0.5403    0.0000 C   0  0  0  0  0  0  0  0  0  0  0  0
    3.7929   -0.2846    0.0000 C   0  0  0  0  0  0  0  0  0  0  0  0
    3.0786   -0.6970    0.0000 C   0  0  0  0  0  0  0  0  0  0  0  0
    3.0786    0.9528    0.0000 C   0  0  0  0  0  0  0  0  0  0  0  0
    4.5303    0.9814    0.0000 C   0  0  0  0  0  0  0  0  0  0  0  0
    2.3641   -0.2846    0.0000 C   0  0  0  0  0  0  0  0  0  0  0  0
    2.3641    0.5403    0.0000 C   0  0  0  0  0  0  0  0  0  0  0  0
    5.2777    0.5574    0.0000 C   0  0  0  0  0  0  0  0  0  0  0  0
    5.2777   -0.3018    0.0000 C   0  0  0  0  0  0  0  0  0  0  0  0
    0.0000    0.0000    0.0000 H   0  0  0  0  0  0  0  0  0  0  0  0
    0.0000    0.0000    0.0000 H   0  0  0  0  0  0  0  0  0  0  0  0
    0.0000    0.0000    0.0000 H   0  0  0  0  0  0  0  0  0  0  0  0
    0.0000    0.0000    0.0000 H   0  0  0  0  0  0  0  0  0  0  0  0
    0.0000    0.0000    0.0000 H   0  0  0  0  0  0  0  0  0  0  0  0
  1  8  1  0
  2 10  1  0
  3  7  1  0
  4  6  2  0
  4 13  1  0
  5  6  1  0
  5  8  1  0
  5  9  2  0
  6  7  1  0
  7 10  2  0
  8 11  2  0
  9 12  1  0
 10 11  1  0
 12 13  2  0
  3 14  1  0
  9 15  1  0
 11 16  1  0
 12 17  1  0
 13 18  1  0
M  END
>  <ALOGPS_LOGP>  (1) 
3.44

>  <ALOGPS_LOGS>  (1) 
-3.19

>  <ALOGPS_SOLUBILITY>  (1) 
1.38e-01 g/l

>  <DATABASE_ID>  (1) 
DB01243

>  <DATABASE_NAME>  (1) 
drugbank

>  <DRUGBANK_ID>  (1) 
DB01243

>  <DRUG_GROUPS>  (1) 
approved

>  <EXACT_MASS>  (1) 
212.974819201

>  <FORMULA>  (1) 
C9H5Cl2NO

>  <GENERIC_NAME>  (1) 
Chloroxine

>  <INCHI_IDENTIFIER>  (1) 
InChI=1S/C9H5Cl2NO/c10-6-4-7(11)9(13)8-5(6)2-1-3-12-8/h1-4,13H

>  <INCHI_KEY>  (1) 
WDFKMLRRRCGAKS-UHFFFAOYSA-N

>  <INTERNATIONAL_BRANDS>  (1) 
Capitrol; Endiaron

>  <JCHEM_ACCEPTOR_COUNT>  (1) 
2

>  <JCHEM_AVERAGE_POLARIZABILITY>  (1) 
19.322074782592896

>  <JCHEM_BIOAVAILABILITY>  (1) 
1

>  <JCHEM_DONOR_COUNT>  (1) 
1

>  <JCHEM_FORMAL_CHARGE>  (1) 
0

>  <JCHEM_GHOSE_FILTER>  (1) 
0

>  <JCHEM_IUPAC>  (1) 
5,7-dichloroquinolin-8-ol

>  <JCHEM_LOGP>  (1) 
3.035424502333333

>  <JCHEM_MDDR_LIKE_RULE>  (1) 
0

>  <JCHEM_NUMBER_OF_RINGS>  (1) 
2

>  <JCHEM_PHYSIOLOGICAL_CHARGE>  (1) 
-1

>  <JCHEM_PKA_STRONGEST_ACIDIC>  (1) 
6.954170972705197

>  <JCHEM_PKA_STRONGEST_BASIC>  (1) 
3.3963142832284525

>  <JCHEM_POLAR_SURFACE_AREA>  (1) 
33.120000000000005

>  <JCHEM_REFRACTIVITY>  (1) 
51.56980000000001

>  <JCHEM_ROTATABLE_BOND_COUNT>  (1) 
0

>  <JCHEM_RULE_OF_FIVE>  (1) 
1

>  <JCHEM_TRADITIONAL_IUPAC>  (1) 
chloroxine

>  <JCHEM_VEBER_RULE>  (1) 
1

>  <MOLECULAR_WEIGHT>  (1) 
214.048

>  <SECONDARY_ACCESSION_NUMBERS>  (1) 
APRD00866

>  <SMILES>  (1) 
OC1=C(Cl)C=C(Cl)C2=C1N=CC=C2

>  <SYNONYMS>  (1) 
Chlorquinol

$$$$
