
     RDKit          2D

  5  4  0  0  0  0  0  0  0  0999 V2000
    1.2375   -0.7145    0.0000 O   0  0  0  0  0  0  0  0  0  0  0  0
    1.9520   -1.1270    0.0000 C   0  0  0  0  0  0  0  0  0  0  0  0
    2.6664   -0.7145    0.0000 O   0  0  0  0  0  0  0  0  0  0  0  0
    0.0000    0.0000    0.0000 H   0  0  0  0  0  0  0  0  0  0  0  0
    0.0000    0.0000    0.0000 H   0  0  0  0  0  0  0  0  0  0  0  0
  1  2  1  0
  2  3  2  0
  1  4  1  0
  2  5  1  0
M  END
>  <ALOGPS_LOGP>  (1) 
-0.47

>  <ALOGPS_LOGS>  (1) 
1.02

>  <ALOGPS_SOLUBILITY>  (1) 
4.77e+02 g/l

>  <DATABASE_ID>  (1) 
DB01942

>  <DATABASE_NAME>  (1) 
drugbank

>  <DRUGBANK_ID>  (1) 
DB01942

>  <DRUG_GROUPS>  (1) 
approved; experimental

>  <EXACT_MASS>  (1) 
46.005479308

>  <FORMULA>  (1) 
CH2O2

>  <GENERIC_NAME>  (1) 
Formic Acid

>  <INCHI_IDENTIFIER>  (1) 
InChI=1S/CH2O2/c2-1-3/h1H,(H,2,3)

>  <INCHI_KEY>  (1) 
BDAGIHXWWSANSR-UHFFFAOYSA-N

>  <JCHEM_ACCEPTOR_COUNT>  (1) 
2

>  <JCHEM_AVERAGE_POLARIZABILITY>  (1) 
3.3740579149165244

>  <JCHEM_BIOAVAILABILITY>  (1) 
1

>  <JCHEM_DONOR_COUNT>  (1) 
1

>  <JCHEM_FORMAL_CHARGE>  (1) 
0

>  <JCHEM_GHOSE_FILTER>  (1) 
0

>  <JCHEM_IUPAC>  (1) 
formic acid

>  <JCHEM_LOGP>  (1) 
-0.2720444223333333

>  <JCHEM_MDDR_LIKE_RULE>  (1) 
0

>  <JCHEM_NUMBER_OF_RINGS>  (1) 
0

>  <JCHEM_PHYSIOLOGICAL_CHARGE>  (1) 
-1

>  <JCHEM_PKA_STRONGEST_ACIDIC>  (1) 
4.2691179843154865

>  <JCHEM_POLAR_SURFACE_AREA>  (1) 
37.3

>  <JCHEM_REFRACTIVITY>  (1) 
8.1532

>  <JCHEM_ROTATABLE_BOND_COUNT>  (1) 
0

>  <JCHEM_RULE_OF_FIVE>  (1) 
1

>  <JCHEM_TRADITIONAL_IUPAC>  (1) 
formic acid

>  <JCHEM_VEBER_RULE>  (1) 
1

>  <MOLECULAR_WEIGHT>  (1) 
46.0254

>  <PRODUCTS>  (1) 
Prenate Elite; Prenate Essential; Prenate Star

>  <SALTS>  (1) 
Calcium formate

>  <SECONDARY_ACCESSION_NUMBERS>  (1) 
EXPT01461

>  <SMILES>  (1) 
OC=O

>  <SYNONYMS>  (1) 
Acide formique; Ameisens√§ure; Aminic acid; bilorin; Formylic acid; Hydrogen carboxylic acid; Methanoic acid

$$$$
