1206
     RDKit          2D

 31 31  0  0  0  0  0  0  0  0999 V2000
    4.5080    2.6813    0.0000 Cl  0  0  0  0  0  0  0  0  0  0  0  0
    3.7935   -0.2063    0.0000 O   0  0  0  0  0  0  0  0  0  0  0  0
    2.3645    2.2688    0.0000 O   0  0  0  0  0  0  0  0  0  0  0  0
    2.3645   -0.2063    0.0000 N   0  0  0  0  0  0  0  0  0  0  0  0
    3.0791    1.0313    0.0000 N   0  0  0  0  0  0  0  0  0  0  0  0
    2.3645    1.4438    0.0000 N   0  0  0  0  0  0  0  0  0  0  0  0
    2.3645   -1.0313    0.0000 C   0  0  0  0  0  0  0  0  0  0  0  0
    1.6500   -1.4438    0.0000 C   0  0  0  0  0  0  0  0  0  0  0  0
    3.0791   -1.4438    0.0000 C   0  0  0  0  0  0  0  0  0  0  0  0
    1.6500   -2.2688    0.0000 C   0  0  0  0  0  0  0  0  0  0  0  0
    3.0791   -2.2688    0.0000 C   0  0  0  0  0  0  0  0  0  0  0  0
    2.3645   -2.6813    0.0000 C   0  0  0  0  0  0  0  0  0  0  0  0
    3.0791    0.2063    0.0000 C   0  0  0  0  0  0  0  0  0  0  0  0
    3.7935    1.4438    0.0000 C   0  0  0  0  0  0  0  0  0  0  0  0
    3.7935    2.2688    0.0000 C   0  0  0  0  0  0  0  0  0  0  0  0
    0.0000    0.0000    0.0000 H   0  0  0  0  0  0  0  0  0  0  0  0
    0.0000    0.0000    0.0000 H   0  0  0  0  0  0  0  0  0  0  0  0
    0.0000    0.0000    0.0000 H   0  0  0  0  0  0  0  0  0  0  0  0
    0.0000    0.0000    0.0000 H   0  0  0  0  0  0  0  0  0  0  0  0
    0.0000    0.0000    0.0000 H   0  0  0  0  0  0  0  0  0  0  0  0
    0.0000    0.0000    0.0000 H   0  0  0  0  0  0  0  0  0  0  0  0
    0.0000    0.0000    0.0000 H   0  0  0  0  0  0  0  0  0  0  0  0
    0.0000    0.0000    0.0000 H   0  0  0  0  0  0  0  0  0  0  0  0
    0.0000    0.0000    0.0000 H   0  0  0  0  0  0  0  0  0  0  0  0
    0.0000    0.0000    0.0000 H   0  0  0  0  0  0  0  0  0  0  0  0
    0.0000    0.0000    0.0000 H   0  0  0  0  0  0  0  0  0  0  0  0
    0.0000    0.0000    0.0000 H   0  0  0  0  0  0  0  0  0  0  0  0
    0.0000    0.0000    0.0000 H   0  0  0  0  0  0  0  0  0  0  0  0
    0.0000    0.0000    0.0000 H   0  0  0  0  0  0  0  0  0  0  0  0
    0.0000    0.0000    0.0000 H   0  0  0  0  0  0  0  0  0  0  0  0
    0.0000    0.0000    0.0000 H   0  0  0  0  0  0  0  0  0  0  0  0
  1 15  1  0
  2 13  2  0
  3  6  2  0
  4  7  1  0
  4 13  1  0
  5  6  1  0
  5 13  1  0
  5 14  1  0
  7  8  1  0
  7  9  1  0
  8 10  1  0
  9 11  1  0
 10 12  1  0
 11 12  1  0
 14 15  1  0
  4 16  1  0
  7 17  1  0
  8 18  1  0
  8 19  1  0
  9 20  1  0
  9 21  1  0
 10 22  1  0
 10 23  1  0
 11 24  1  0
 11 25  1  0
 12 26  1  0
 12 27  1  0
 14 28  1  0
 14 29  1  0
 15 30  1  0
 15 31  1  0
M  END
>  <ALOGPS_LOGP>  (1) 
2.62

>  <ALOGPS_LOGS>  (1) 
-2.49

>  <ALOGPS_SOLUBILITY>  (1) 
7.55e-01 g/l

>  <DATABASE_ID>  (1) 
DB01206

>  <DATABASE_NAME>  (1) 
drugbank

>  <DRUGBANK_ID>  (1) 
DB01206

>  <DRUG_GROUPS>  (1) 
approved

>  <EXACT_MASS>  (1) 
233.093104478

>  <FORMULA>  (1) 
C9H16ClN3O2

>  <GENERIC_NAME>  (1) 
Lomustine

>  <INCHI_IDENTIFIER>  (1) 
InChI=1S/C9H16ClN3O2/c10-6-7-13(12-15)9(14)11-8-4-2-1-3-5-8/h8H,1-7H2,(H,11,14)

>  <INCHI_KEY>  (1) 
GQYIWUVLTXOXAJ-UHFFFAOYSA-N

>  <INTERNATIONAL_BRANDS>  (1) 
Belustine; CCNU; Cecenu

>  <JCHEM_ACCEPTOR_COUNT>  (1) 
2

>  <JCHEM_AVERAGE_POLARIZABILITY>  (1) 
23.611412131908757

>  <JCHEM_BIOAVAILABILITY>  (1) 
1

>  <JCHEM_DONOR_COUNT>  (1) 
1

>  <JCHEM_FORMAL_CHARGE>  (1) 
0

>  <JCHEM_GHOSE_FILTER>  (1) 
1

>  <JCHEM_IUPAC>  (1) 
3-(2-chloroethyl)-1-cyclohexyl-3-nitrosourea

>  <JCHEM_LOGP>  (1) 
2.1574369699999996

>  <JCHEM_MDDR_LIKE_RULE>  (1) 
0

>  <JCHEM_NUMBER_OF_RINGS>  (1) 
1

>  <JCHEM_PHYSIOLOGICAL_CHARGE>  (1) 
0

>  <JCHEM_PKA_STRONGEST_ACIDIC>  (1) 
13.302978190682751

>  <JCHEM_PKA_STRONGEST_BASIC>  (1) 
-5.349365921574837

>  <JCHEM_POLAR_SURFACE_AREA>  (1) 
61.77

>  <JCHEM_REFRACTIVITY>  (1) 
58.6506

>  <JCHEM_ROTATABLE_BOND_COUNT>  (1) 
4

>  <JCHEM_RULE_OF_FIVE>  (1) 
1

>  <JCHEM_TRADITIONAL_IUPAC>  (1) 
lomustine

>  <JCHEM_VEBER_RULE>  (1) 
0

>  <MOLECULAR_WEIGHT>  (1) 
233.695

>  <PRODUCTS>  (1) 
Ceenu; Gleostine; Lomustine

>  <SECONDARY_ACCESSION_NUMBERS>  (1) 
APRD00292

>  <SMILES>  (1) 
ClCCN(N=O)C(=O)NC1CCCCC1

>  <SYNONYMS>  (1) 
Chloroethylcyclohexylnitrosourea; Lomustina; Lomustinum

$$$$
