1267
     RDKit          2D

 58 62  0  0  1  0  0  0  0  0999 V2000
    1.6500   -0.6622    0.0000 F   0  0  0  0  0  0  0  0  0  0  0  0
    3.9340   -2.4952    0.0000 O   0  0  0  0  0  0  0  0  0  0  0  0
   11.2647    2.2343    0.0000 O   0  0  0  0  0  0  0  0  0  0  0  0
    9.8223   -1.0943    0.0000 O   0  0  0  0  0  0  0  0  0  0  0  0
    6.9643   -0.2693    0.0000 N   0  0  0  0  0  0  0  0  0  0  0  0
   10.5367    0.1432    0.0000 N   0  0  0  0  0  0  0  0  0  0  0  0
    4.7359   -2.3226    0.0000 N   0  0  0  0  0  0  0  0  0  0  0  0
    9.8223    1.3808    0.0000 N   0  0  0  0  0  0  0  0  0  0  0  0
    5.5353   -1.0943    0.0000 C   0  0  0  0  0  0  0  0  0  0  0  0
    6.2498   -1.5068    0.0000 C   0  0  0  0  0  0  0  0  0  0  0  0
    5.5353   -0.2693    0.0000 C   0  0  0  0  0  0  0  0  0  0  0  0
    6.9643   -1.0943    0.0000 C   0  0  0  0  0  0  0  0  0  0  0  0
    6.2498    0.1432    0.0000 C   0  0  0  0  0  0  0  0  0  0  0  0
    7.6788    0.1432    0.0000 C   0  0  0  0  0  0  0  0  0  0  0  0
    4.8208   -1.5068    0.0000 C   0  0  0  0  0  0  0  0  0  0  0  0
    8.3932   -0.2693    0.0000 C   0  0  0  0  0  0  0  0  0  0  0  0
    9.1078    0.1432    0.0000 C   0  0  0  0  0  0  0  0  0  0  0  0
   11.2742   -0.2979    0.0000 C   0  0  0  0  0  0  0  0  0  0  0  0
   11.2742    1.4093    0.0000 C   0  0  0  0  0  0  0  0  0  0  0  0
   12.0218    0.1261    0.0000 C   0  0  0  0  0  0  0  0  0  0  0  0
   12.0218    0.9854    0.0000 C   0  0  0  0  0  0  0  0  0  0  0  0
   10.5367    0.9682    0.0000 C   0  0  0  0  0  0  0  0  0  0  0  0
    4.0719   -1.1726    0.0000 C   0  0  0  0  0  0  0  0  0  0  0  0
    9.8223   -0.2693    0.0000 C   0  0  0  0  0  0  0  0  0  0  0  0
    9.1078    0.9682    0.0000 C   0  0  0  0  0  0  0  0  0  0  0  0
    3.5209   -1.7867    0.0000 C   0  0  0  0  0  0  0  0  0  0  0  0
    3.8156   -0.3884    0.0000 C   0  0  0  0  0  0  0  0  0  0  0  0
    8.3932    1.3808    0.0000 C   0  0  0  0  0  0  0  0  0  0  0  0
    2.7136   -1.6165    0.0000 C   0  0  0  0  0  0  0  0  0  0  0  0
    3.0083   -0.2183    0.0000 C   0  0  0  0  0  0  0  0  0  0  0  0
    2.4573   -0.8324    0.0000 C   0  0  0  0  0  0  0  0  0  0  0  0
    0.0000    0.0000    0.0000 H   0  0  0  0  0  0  0  0  0  0  0  0
    0.0000    0.0000    0.0000 H   0  0  0  0  0  0  0  0  0  0  0  0
    0.0000    0.0000    0.0000 H   0  0  0  0  0  0  0  0  0  0  0  0
    0.0000    0.0000    0.0000 H   0  0  0  0  0  0  0  0  0  0  0  0
    0.0000    0.0000    0.0000 H   0  0  0  0  0  0  0  0  0  0  0  0
    0.0000    0.0000    0.0000 H   0  0  0  0  0  0  0  0  0  0  0  0
    0.0000    0.0000    0.0000 H   0  0  0  0  0  0  0  0  0  0  0  0
    0.0000    0.0000    0.0000 H   0  0  0  0  0  0  0  0  0  0  0  0
    0.0000    0.0000    0.0000 H   0  0  0  0  0  0  0  0  0  0  0  0
    0.0000    0.0000    0.0000 H   0  0  0  0  0  0  0  0  0  0  0  0
    0.0000    0.0000    0.0000 H   0  0  0  0  0  0  0  0  0  0  0  0
    0.0000    0.0000    0.0000 H   0  0  0  0  0  0  0  0  0  0  0  0
    0.0000    0.0000    0.0000 H   0  0  0  0  0  0  0  0  0  0  0  0
    0.0000    0.0000    0.0000 H   0  0  0  0  0  0  0  0  0  0  0  0
    0.0000    0.0000    0.0000 H   0  0  0  0  0  0  0  0  0  0  0  0
    0.0000    0.0000    0.0000 H   0  0  0  0  0  0  0  0  0  0  0  0
    0.0000    0.0000    0.0000 H   0  0  0  0  0  0  0  0  0  0  0  0
    0.0000    0.0000    0.0000 H   0  0  0  0  0  0  0  0  0  0  0  0
    0.0000    0.0000    0.0000 H   0  0  0  0  0  0  0  0  0  0  0  0
    0.0000    0.0000    0.0000 H   0  0  0  0  0  0  0  0  0  0  0  0
    0.0000    0.0000    0.0000 H   0  0  0  0  0  0  0  0  0  0  0  0
    0.0000    0.0000    0.0000 H   0  0  0  0  0  0  0  0  0  0  0  0
    0.0000    0.0000    0.0000 H   0  0  0  0  0  0  0  0  0  0  0  0
    0.0000    0.0000    0.0000 H   0  0  0  0  0  0  0  0  0  0  0  0
    0.0000    0.0000    0.0000 H   0  0  0  0  0  0  0  0  0  0  0  0
    0.0000    0.0000    0.0000 H   0  0  0  0  0  0  0  0  0  0  0  0
    0.0000    0.0000    0.0000 H   0  0  0  0  0  0  0  0  0  0  0  0
  1 31  1  0
  2  7  1  0
  2 26  1  0
  3 19  1  0
  4 24  2  0
  5 12  1  0
  5 13  1  0
  5 14  1  0
  6 18  1  0
  6 22  1  0
  6 24  1  0
  7 15  2  0
  8 22  2  0
  8 25  1  0
  9 10  1  0
  9 11  1  0
  9 15  1  0
 10 12  1  0
 11 13  1  0
 14 16  1  0
 15 23  1  0
 16 17  1  0
 17 24  1  0
 17 25  2  0
 18 20  1  0
 19 21  1  0
 19 22  1  0
 20 21  1  0
 23 26  2  0
 23 27  1  0
 25 28  1  0
 26 29  1  0
 27 30  2  0
 29 31  2  0
 30 31  1  0
  3 32  1  0
  9 33  1  0
 10 34  1  0
 10 35  1  0
 11 36  1  0
 11 37  1  0
 12 38  1  0
 12 39  1  0
 13 40  1  0
 13 41  1  0
 14 42  1  0
 14 43  1  0
 16 44  1  0
 16 45  1  0
 18 46  1  0
 18 47  1  0
 19 48  1  0
 20 49  1  0
 20 50  1  0
 21 51  1  0
 21 52  1  0
 27 53  1  0
 28 54  1  0
 28 55  1  0
 28 56  1  0
 29 57  1  0
 30 58  1  0
M  END
>  <ALOGPS_LOGP>  (1) 
2.30

>  <ALOGPS_LOGS>  (1) 
-3.16

>  <ALOGPS_SOLUBILITY>  (1) 
2.97e-01 g/l

>  <DATABASE_ID>  (1) 
DB01267

>  <DATABASE_NAME>  (1) 
drugbank

>  <DRUGBANK_ID>  (1) 
DB01267

>  <DRUG_GROUPS>  (1) 
approved

>  <EXACT_MASS>  (1) 
426.206718955

>  <FORMULA>  (1) 
C23H27FN4O3

>  <GENERIC_NAME>  (1) 
Paliperidone

>  <INCHI_IDENTIFIER>  (1) 
InChI=1S/C23H27FN4O3/c1-14-17(23(30)28-9-2-3-19(29)22(28)25-14)8-12-27-10-6-15(7-11-27)21-18-5-4-16(24)13-20(18)31-26-21/h4-5,13,15,19,29H,2-3,6-12H2,1H3

>  <INCHI_KEY>  (1) 
PMXMIIMHBWHSKN-UHFFFAOYSA-N

>  <JCHEM_ACCEPTOR_COUNT>  (1) 
5

>  <JCHEM_AVERAGE_POLARIZABILITY>  (1) 
45.94750072428491

>  <JCHEM_BIOAVAILABILITY>  (1) 
1

>  <JCHEM_DONOR_COUNT>  (1) 
1

>  <JCHEM_FORMAL_CHARGE>  (1) 
0

>  <JCHEM_GHOSE_FILTER>  (1) 
1

>  <JCHEM_IUPAC>  (1) 
3-{2-[4-(6-fluoro-1,2-benzoxazol-3-yl)piperidin-1-yl]ethyl}-9-hydroxy-2-methyl-4H,6H,7H,8H,9H-pyrido[1,2-a]pyrimidin-4-one

>  <JCHEM_LOGP>  (1) 
1.7565551636666674

>  <JCHEM_MDDR_LIKE_RULE>  (1) 
0

>  <JCHEM_NUMBER_OF_RINGS>  (1) 
5

>  <JCHEM_PHYSIOLOGICAL_CHARGE>  (1) 
1

>  <JCHEM_PKA_STRONGEST_ACIDIC>  (1) 
13.742356596976887

>  <JCHEM_PKA_STRONGEST_BASIC>  (1) 
8.763162789831293

>  <JCHEM_POLAR_SURFACE_AREA>  (1) 
82.17

>  <JCHEM_REFRACTIVITY>  (1) 
116.04139999999998

>  <JCHEM_ROTATABLE_BOND_COUNT>  (1) 
4

>  <JCHEM_RULE_OF_FIVE>  (1) 
1

>  <JCHEM_TRADITIONAL_IUPAC>  (1) 
invega

>  <JCHEM_VEBER_RULE>  (1) 
0

>  <MOLECULAR_WEIGHT>  (1) 
426.4839

>  <PRODUCTS>  (1) 
Invega; Invega Sustenna; Invega Trinza; Mylan-paliperidone; Paliperidone; Xeplion

>  <SALTS>  (1) 
Paliperidone palmitate

>  <SMILES>  (1) 
CC1=C(CCN2CCC(CC2)C2=NOC3=C2C=CC(F)=C3)C(=O)N2CCCC(O)C2=N1

$$$$
