1218
     RDKit          2D

 63 65  0  0  1  0  0  0  0  0999 V2000
    7.4502    1.8251    0.0000 Cl  0  0  0  0  0  0  0  0  0  0  0  0
    5.9997    4.3598    0.0000 Cl  0  0  0  0  0  0  0  0  0  0  0  0
    2.7781    2.9730    0.0000 F   0  0  0  0  0  0  0  0  0  0  0  0
    1.9477    1.5472    0.0000 F   0  0  0  0  0  0  0  0  0  0  0  0
    1.6500    2.6754    0.0000 F   0  0  0  0  0  0  0  0  0  0  0  0
    4.5608   -0.6473    0.0000 O   0  0  0  0  0  0  0  0  0  0  0  0
    6.7043   -1.8848    0.0000 N   0  0  0  0  0  0  0  0  0  0  0  0
    5.9897   -1.4723    0.0000 C   0  0  0  0  0  0  0  0  0  0  0  0
    5.9897   -0.6473    0.0000 C   0  0  0  0  0  0  0  0  0  0  0  0
    5.2753   -0.2348    0.0000 C   0  0  0  0  0  0  0  0  0  0  0  0
    6.7043   -2.7098    0.0000 C   0  0  0  0  0  0  0  0  0  0  0  0
    7.4187   -1.4723    0.0000 C   0  0  0  0  0  0  0  0  0  0  0  0
    5.2753    0.5902    0.0000 C   0  0  0  0  0  0  0  0  0  0  0  0
    7.4187   -3.1223    0.0000 C   0  0  0  0  0  0  0  0  0  0  0  0
    8.1332   -1.8848    0.0000 C   0  0  0  0  0  0  0  0  0  0  0  0
    4.5608    1.0027    0.0000 C   0  0  0  0  0  0  0  0  0  0  0  0
    4.5608    1.8277    0.0000 C   0  0  0  0  0  0  0  0  0  0  0  0
    5.9897    1.0027    0.0000 C   0  0  0  0  0  0  0  0  0  0  0  0
    5.2753    2.2402    0.0000 C   0  0  0  0  0  0  0  0  0  0  0  0
    5.9897    1.8277    0.0000 C   0  0  0  0  0  0  0  0  0  0  0  0
    7.4187   -3.9473    0.0000 C   0  0  0  0  0  0  0  0  0  0  0  0
    8.8476   -1.4723    0.0000 C   0  0  0  0  0  0  0  0  0  0  0  0
    3.8233    0.5616    0.0000 C   0  0  0  0  0  0  0  0  0  0  0  0
    3.8233    2.2688    0.0000 C   0  0  0  0  0  0  0  0  0  0  0  0
    3.0758    1.8449    0.0000 C   0  0  0  0  0  0  0  0  0  0  0  0
    5.2621    3.0995    0.0000 C   0  0  0  0  0  0  0  0  0  0  0  0
    3.0758    0.9856    0.0000 C   0  0  0  0  0  0  0  0  0  0  0  0
    6.7405    2.2458    0.0000 C   0  0  0  0  0  0  0  0  0  0  0  0
    8.1332   -4.3598    0.0000 C   0  0  0  0  0  0  0  0  0  0  0  0
    9.5622   -1.8848    0.0000 C   0  0  0  0  0  0  0  0  0  0  0  0
    6.0029    3.5348    0.0000 C   0  0  0  0  0  0  0  0  0  0  0  0
    6.7472    3.1052    0.0000 C   0  0  0  0  0  0  0  0  0  0  0  0
    2.3629    2.2601    0.0000 C   0  0  0  0  0  0  0  0  0  0  0  0
    0.0000    0.0000    0.0000 H   0  0  0  0  0  0  0  0  0  0  0  0
    0.0000    0.0000    0.0000 H   0  0  0  0  0  0  0  0  0  0  0  0
    0.0000    0.0000    0.0000 H   0  0  0  0  0  0  0  0  0  0  0  0
    0.0000    0.0000    0.0000 H   0  0  0  0  0  0  0  0  0  0  0  0
    0.0000    0.0000    0.0000 H   0  0  0  0  0  0  0  0  0  0  0  0
    0.0000    0.0000    0.0000 H   0  0  0  0  0  0  0  0  0  0  0  0
    0.0000    0.0000    0.0000 H   0  0  0  0  0  0  0  0  0  0  0  0
    0.0000    0.0000    0.0000 H   0  0  0  0  0  0  0  0  0  0  0  0
    0.0000    0.0000    0.0000 H   0  0  0  0  0  0  0  0  0  0  0  0
    0.0000    0.0000    0.0000 H   0  0  0  0  0  0  0  0  0  0  0  0
    0.0000    0.0000    0.0000 H   0  0  0  0  0  0  0  0  0  0  0  0
    0.0000    0.0000    0.0000 H   0  0  0  0  0  0  0  0  0  0  0  0
    0.0000    0.0000    0.0000 H   0  0  0  0  0  0  0  0  0  0  0  0
    0.0000    0.0000    0.0000 H   0  0  0  0  0  0  0  0  0  0  0  0
    0.0000    0.0000    0.0000 H   0  0  0  0  0  0  0  0  0  0  0  0
    0.0000    0.0000    0.0000 H   0  0  0  0  0  0  0  0  0  0  0  0
    0.0000    0.0000    0.0000 H   0  0  0  0  0  0  0  0  0  0  0  0
    0.0000    0.0000    0.0000 H   0  0  0  0  0  0  0  0  0  0  0  0
    0.0000    0.0000    0.0000 H   0  0  0  0  0  0  0  0  0  0  0  0
    0.0000    0.0000    0.0000 H   0  0  0  0  0  0  0  0  0  0  0  0
    0.0000    0.0000    0.0000 H   0  0  0  0  0  0  0  0  0  0  0  0
    0.0000    0.0000    0.0000 H   0  0  0  0  0  0  0  0  0  0  0  0
    0.0000    0.0000    0.0000 H   0  0  0  0  0  0  0  0  0  0  0  0
    0.0000    0.0000    0.0000 H   0  0  0  0  0  0  0  0  0  0  0  0
    0.0000    0.0000    0.0000 H   0  0  0  0  0  0  0  0  0  0  0  0
    0.0000    0.0000    0.0000 H   0  0  0  0  0  0  0  0  0  0  0  0
    0.0000    0.0000    0.0000 H   0  0  0  0  0  0  0  0  0  0  0  0
    0.0000    0.0000    0.0000 H   0  0  0  0  0  0  0  0  0  0  0  0
    0.0000    0.0000    0.0000 H   0  0  0  0  0  0  0  0  0  0  0  0
    0.0000    0.0000    0.0000 H   0  0  0  0  0  0  0  0  0  0  0  0
  1 28  1  0
  2 31  1  0
  3 33  1  0
  4 33  1  0
  5 33  1  0
  6 10  1  0
  7  8  1  0
  7 11  1  0
  7 12  1  0
  8  9  1  0
  9 10  1  0
 10 13  1  0
 11 14  1  0
 12 15  1  0
 13 16  2  0
 13 18  1  0
 14 21  1  0
 15 22  1  0
 16 17  1  0
 16 23  1  0
 17 19  2  0
 17 24  1  0
 18 20  2  0
 19 20  1  0
 19 26  1  0
 20 28  1  0
 21 29  1  0
 22 30  1  0
 23 27  2  0
 24 25  2  0
 25 27  1  0
 25 33  1  0
 26 31  2  0
 28 32  2  0
 31 32  1  0
  6 34  1  0
  8 35  1  0
  8 36  1  0
  9 37  1  0
  9 38  1  0
 10 39  1  0
 11 40  1  0
 11 41  1  0
 12 42  1  0
 12 43  1  0
 14 44  1  0
 14 45  1  0
 15 46  1  0
 15 47  1  0
 18 48  1  0
 21 49  1  0
 21 50  1  0
 22 51  1  0
 22 52  1  0
 23 53  1  0
 24 54  1  0
 26 55  1  0
 27 56  1  0
 29 57  1  0
 29 58  1  0
 29 59  1  0
 30 60  1  0
 30 61  1  0
 30 62  1  0
 32 63  1  0
M  END
>  <ALOGPS_LOGP>  (1) 
7.34

>  <ALOGPS_LOGS>  (1) 
-6.66

>  <ALOGPS_SOLUBILITY>  (1) 
1.11e-04 g/l

>  <DATABASE_ID>  (1) 
DB01218

>  <DATABASE_NAME>  (1) 
drugbank

>  <DRUGBANK_ID>  (1) 
DB01218

>  <DRUG_GROUPS>  (1) 
approved

>  <EXACT_MASS>  (1) 
499.165654616

>  <FORMULA>  (1) 
C26H30Cl2F3NO

>  <GENERIC_NAME>  (1) 
Halofantrine

>  <INCHI_IDENTIFIER>  (1) 
InChI=1S/C26H30Cl2F3NO/c1-3-5-10-32(11-6-4-2)12-9-25(33)23-16-22-21(14-18(27)15-24(22)28)20-13-17(26(29,30)31)7-8-19(20)23/h7-8,13-16,25,33H,3-6,9-12H2,1-2H3

>  <INCHI_KEY>  (1) 
FOHHNHSLJDZUGQ-UHFFFAOYSA-N

>  <JCHEM_ACCEPTOR_COUNT>  (1) 
2

>  <JCHEM_AVERAGE_POLARIZABILITY>  (1) 
51.53248165383641

>  <JCHEM_BIOAVAILABILITY>  (1) 
0

>  <JCHEM_DONOR_COUNT>  (1) 
1

>  <JCHEM_FORMAL_CHARGE>  (1) 
0

>  <JCHEM_GHOSE_FILTER>  (1) 
0

>  <JCHEM_IUPAC>  (1) 
3-(dibutylamino)-1-[1,3-dichloro-6-(trifluoromethyl)phenanthren-9-yl]propan-1-ol

>  <JCHEM_LOGP>  (1) 
8.056956757

>  <JCHEM_MDDR_LIKE_RULE>  (1) 
1

>  <JCHEM_NUMBER_OF_RINGS>  (1) 
3

>  <JCHEM_PHYSIOLOGICAL_CHARGE>  (1) 
1

>  <JCHEM_PKA_STRONGEST_ACIDIC>  (1) 
14.470627226532233

>  <JCHEM_PKA_STRONGEST_BASIC>  (1) 
10.052483453652846

>  <JCHEM_POLAR_SURFACE_AREA>  (1) 
23.47

>  <JCHEM_REFRACTIVITY>  (1) 
131.6595

>  <JCHEM_ROTATABLE_BOND_COUNT>  (1) 
11

>  <JCHEM_RULE_OF_FIVE>  (1) 
0

>  <JCHEM_TRADITIONAL_IUPAC>  (1) 
halofantrine

>  <JCHEM_VEBER_RULE>  (1) 
0

>  <MOLECULAR_WEIGHT>  (1) 
500.424

>  <PRODUCTS>  (1) 
Halfan - Tab 250mg

>  <SALTS>  (1) 
Halofantrine hydrochloride

>  <SECONDARY_ACCESSION_NUMBERS>  (1) 
APRD00419

>  <SMILES>  (1) 
CCCCN(CCCC)CCC(O)C1=C2C=CC(=CC2=C2C=C(Cl)C=C(Cl)C2=C1)C(F)(F)F

>  <SYNONYMS>  (1) 
Halofantrina; Halofantrinum

$$$$
