1210
     RDKit          2D

 46 47  0  0  1  0  0  0  0  0999 V2000
    4.5080    0.1367    0.0000 O   0  0  0  0  0  0  0  0  0  0  0  0
    4.5080   -1.5133    0.0000 O   0  0  0  0  0  0  0  0  0  0  0  0
    5.9504    3.4653    0.0000 O   0  0  0  0  0  0  0  0  0  0  0  0
    3.0791   -2.3383    0.0000 N   0  0  0  0  0  0  0  0  0  0  0  0
    2.3645   -2.7509    0.0000 C   0  0  0  0  0  0  0  0  0  0  0  0
    5.9600    0.9332    0.0000 C   0  0  0  0  0  0  0  0  0  0  0  0
    5.2224    1.3742    0.0000 C   0  0  0  0  0  0  0  0  0  0  0  0
    3.0791   -1.5133    0.0000 C   0  0  0  0  0  0  0  0  0  0  0  0
    6.7075    1.3571    0.0000 C   0  0  0  0  0  0  0  0  0  0  0  0
    3.7935   -1.1008    0.0000 C   0  0  0  0  0  0  0  0  0  0  0  0
    6.7075    2.2164    0.0000 C   0  0  0  0  0  0  0  0  0  0  0  0
    5.2224    2.1993    0.0000 C   0  0  0  0  0  0  0  0  0  0  0  0
    1.9520   -2.0364    0.0000 C   0  0  0  0  0  0  0  0  0  0  0  0
    2.7770   -3.4653    0.0000 C   0  0  0  0  0  0  0  0  0  0  0  0
    1.6500   -3.1634    0.0000 C   0  0  0  0  0  0  0  0  0  0  0  0
    4.5080    0.9617    0.0000 C   0  0  0  0  0  0  0  0  0  0  0  0
    3.7935   -0.2758    0.0000 C   0  0  0  0  0  0  0  0  0  0  0  0
    5.9600    2.6404    0.0000 C   0  0  0  0  0  0  0  0  0  0  0  0
    4.5080    2.6118    0.0000 C   0  0  0  0  0  0  0  0  0  0  0  0
    3.7935    1.3742    0.0000 C   0  0  0  0  0  0  0  0  0  0  0  0
    3.7935    2.1993    0.0000 C   0  0  0  0  0  0  0  0  0  0  0  0
    0.0000    0.0000    0.0000 H   0  0  0  0  0  0  0  0  0  0  0  0
    0.0000    0.0000    0.0000 H   0  0  0  0  0  0  0  0  0  0  0  0
    0.0000    0.0000    0.0000 H   0  0  0  0  0  0  0  0  0  0  0  0
    0.0000    0.0000    0.0000 H   0  0  0  0  0  0  0  0  0  0  0  0
    0.0000    0.0000    0.0000 H   0  0  0  0  0  0  0  0  0  0  0  0
    0.0000    0.0000    0.0000 H   0  0  0  0  0  0  0  0  0  0  0  0
    0.0000    0.0000    0.0000 H   0  0  0  0  0  0  0  0  0  0  0  0
    0.0000    0.0000    0.0000 H   0  0  0  0  0  0  0  0  0  0  0  0
    0.0000    0.0000    0.0000 H   0  0  0  0  0  0  0  0  0  0  0  0
    0.0000    0.0000    0.0000 H   0  0  0  0  0  0  0  0  0  0  0  0
    0.0000    0.0000    0.0000 H   0  0  0  0  0  0  0  0  0  0  0  0
    0.0000    0.0000    0.0000 H   0  0  0  0  0  0  0  0  0  0  0  0
    0.0000    0.0000    0.0000 H   0  0  0  0  0  0  0  0  0  0  0  0
    0.0000    0.0000    0.0000 H   0  0  0  0  0  0  0  0  0  0  0  0
    0.0000    0.0000    0.0000 H   0  0  0  0  0  0  0  0  0  0  0  0
    0.0000    0.0000    0.0000 H   0  0  0  0  0  0  0  0  0  0  0  0
    0.0000    0.0000    0.0000 H   0  0  0  0  0  0  0  0  0  0  0  0
    0.0000    0.0000    0.0000 H   0  0  0  0  0  0  0  0  0  0  0  0
    0.0000    0.0000    0.0000 H   0  0  0  0  0  0  0  0  0  0  0  0
    0.0000    0.0000    0.0000 H   0  0  0  0  0  0  0  0  0  0  0  0
    0.0000    0.0000    0.0000 H   0  0  0  0  0  0  0  0  0  0  0  0
    0.0000    0.0000    0.0000 H   0  0  0  0  0  0  0  0  0  0  0  0
    0.0000    0.0000    0.0000 H   0  0  0  0  0  0  0  0  0  0  0  0
    0.0000    0.0000    0.0000 H   0  0  0  0  0  0  0  0  0  0  0  0
    0.0000    0.0000    0.0000 H   0  0  0  0  0  0  0  0  0  0  0  0
  1 16  1  0
  1 17  1  0
 10  2  1  6
  3 18  2  0
  4  5  1  0
  4  8  1  0
  5 13  1  0
  5 14  1  0
  5 15  1  0
  6  7  1  0
  6  9  1  0
  7 12  2  0
  7 16  1  0
  8 10  1  0
  9 11  1  0
 10 17  1  0
 11 18  1  0
 12 18  1  0
 12 19  1  0
 16 20  2  0
 19 21  2  0
 20 21  1  0
  2 22  1  0
  4 23  1  0
  6 24  1  0
  6 25  1  0
  8 26  1  0
  8 27  1  0
  9 28  1  0
  9 29  1  0
 10 30  1  0
 11 31  1  0
 11 32  1  0
 13 33  1  0
 13 34  1  0
 13 35  1  0
 14 36  1  0
 14 37  1  0
 14 38  1  0
 15 39  1  0
 15 40  1  0
 15 41  1  0
 17 42  1  0
 17 43  1  0
 19 44  1  0
 20 45  1  0
 21 46  1  0
M  END
>  <ALOGPS_LOGP>  (1) 
2.06

>  <ALOGPS_LOGS>  (1) 
-3.07

>  <ALOGPS_SOLUBILITY>  (1) 
2.51e-01 g/l

>  <DATABASE_ID>  (1) 
DB01210

>  <DATABASE_NAME>  (1) 
drugbank

>  <DRUGBANK_ID>  (1) 
DB01210

>  <DRUG_GROUPS>  (1) 
approved

>  <EXACT_MASS>  (1) 
291.183443671

>  <FORMULA>  (1) 
C17H25NO3

>  <GENERIC_NAME>  (1) 
Levobunolol

>  <INCHI_IDENTIFIER>  (1) 
InChI=1S/C17H25NO3/c1-17(2,3)18-10-12(19)11-21-16-9-5-6-13-14(16)7-4-8-15(13)20/h5-6,9,12,18-19H,4,7-8,10-11H2,1-3H3/t12-/m0/s1

>  <INCHI_KEY>  (1) 
IXHBTMCLRNMKHZ-LBPRGKRZSA-N

>  <JCHEM_ACCEPTOR_COUNT>  (1) 
4

>  <JCHEM_AVERAGE_POLARIZABILITY>  (1) 
33.384948044500426

>  <JCHEM_BIOAVAILABILITY>  (1) 
1

>  <JCHEM_DONOR_COUNT>  (1) 
2

>  <JCHEM_FORMAL_CHARGE>  (1) 
0

>  <JCHEM_GHOSE_FILTER>  (1) 
1

>  <JCHEM_IUPAC>  (1) 
5-[(2S)-3-(tert-butylamino)-2-hydroxypropoxy]-1,2,3,4-tetrahydronaphthalen-1-one

>  <JCHEM_LOGP>  (1) 
2.1826746933333334

>  <JCHEM_MDDR_LIKE_RULE>  (1) 
0

>  <JCHEM_NUMBER_OF_RINGS>  (1) 
2

>  <JCHEM_PHYSIOLOGICAL_CHARGE>  (1) 
1

>  <JCHEM_PKA>  (1) 
16.520819050342944

>  <JCHEM_PKA_STRONGEST_ACIDIC>  (1) 
14.085866357460784

>  <JCHEM_PKA_STRONGEST_BASIC>  (1) 
9.659628628990795

>  <JCHEM_POLAR_SURFACE_AREA>  (1) 
58.56

>  <JCHEM_REFRACTIVITY>  (1) 
83.28240000000001

>  <JCHEM_ROTATABLE_BOND_COUNT>  (1) 
6

>  <JCHEM_RULE_OF_FIVE>  (1) 
1

>  <JCHEM_TRADITIONAL_IUPAC>  (1) 
akÎ²

>  <JCHEM_VEBER_RULE>  (1) 
0

>  <MOLECULAR_WEIGHT>  (1) 
291.3853

>  <PRODUCTS>  (1) 
Apo-levobunolol Ophthalmic Solution USP 0.25%; Apo-levobunolol Ophthalmic Solution USP 0.5%; Betagan; Betagan 0.5% Ophthalmic Sol; Betagan Oph Soln 0.25%; Levobunolol Hydrochloride; Levobunolol Hydrochloride Ophthalmic Solution; Novo-levobunolol - Liq 0.25%; Novo-levobunolol - Liq 0.5%; PMS-levobunolol; Probeta - Liq Oph; Ratio-levobunolol; Sandoz Levobunolol

>  <SALTS>  (1) 
Levobunolol Hydrochloride

>  <SECONDARY_ACCESSION_NUMBERS>  (1) 
APRD00165

>  <SMILES>  (1) 
CC(C)(C)NC[C@H](O)COC1=CC=CC2=C1CCCC2=O

>  <SYNONYMS>  (1) 
Levobunololum

$$$$
