1423
     RDKit          2D

 28 28  0  0  1  0  0  0  0  0999 V2000
    3.9410    0.7486    0.0000 S   0  0  0  0  0  0  0  0  0  0  0  0
    2.3174    1.3256    0.0000 S   0  0  0  0  0  0  0  0  0  0  0  0
    4.2841   -0.8653    0.0000 O   0  0  0  0  0  0  0  0  0  0  0  0
    4.3826    2.1076    0.0000 O   0  0  0  0  0  0  0  0  0  0  0  0
    6.8095   -2.4371    0.0000 O   0  0  0  0  0  0  0  0  0  0  0  0
    7.2510   -1.0781    0.0000 O   0  0  0  0  0  0  0  0  0  0  0  0
    5.6818   -0.5682    0.0000 N   0  0  0  0  0  0  0  0  0  0  0  0
    4.7257    0.4937    0.0000 C   0  0  0  0  0  0  0  0  0  0  0  0
    4.8972   -0.3133    0.0000 C   0  0  0  0  0  0  0  0  0  0  0  0
    5.3387    1.0457    0.0000 C   0  0  0  0  0  0  0  0  0  0  0  0
    5.8533   -1.3752    0.0000 C   0  0  0  0  0  0  0  0  0  0  0  0
    3.7695    1.5556    0.0000 C   0  0  0  0  0  0  0  0  0  0  0  0
    2.9848    1.8105    0.0000 C   0  0  0  0  0  0  0  0  0  0  0  0
    2.7299    2.5952    0.0000 C   0  0  0  0  0  0  0  0  0  0  0  0
    6.6379   -1.6301    0.0000 C   0  0  0  0  0  0  0  0  0  0  0  0
    1.9049    2.5952    0.0000 C   0  0  0  0  0  0  0  0  0  0  0  0
    1.6500    1.8105    0.0000 C   0  0  0  0  0  0  0  0  0  0  0  0
    0.0000    0.0000    0.0000 H   0  0  0  0  0  0  0  0  0  0  0  0
    0.0000    0.0000    0.0000 H   0  0  0  0  0  0  0  0  0  0  0  0
    0.0000    0.0000    0.0000 H   0  0  0  0  0  0  0  0  0  0  0  0
    0.0000    0.0000    0.0000 H   0  0  0  0  0  0  0  0  0  0  0  0
    0.0000    0.0000    0.0000 H   0  0  0  0  0  0  0  0  0  0  0  0
    0.0000    0.0000    0.0000 H   0  0  0  0  0  0  0  0  0  0  0  0
    0.0000    0.0000    0.0000 H   0  0  0  0  0  0  0  0  0  0  0  0
    0.0000    0.0000    0.0000 H   0  0  0  0  0  0  0  0  0  0  0  0
    0.0000    0.0000    0.0000 H   0  0  0  0  0  0  0  0  0  0  0  0
    0.0000    0.0000    0.0000 H   0  0  0  0  0  0  0  0  0  0  0  0
    0.0000    0.0000    0.0000 H   0  0  0  0  0  0  0  0  0  0  0  0
  1  8  1  0
  1 12  1  0
  2 13  1  0
  2 17  1  0
  3  9  2  0
  4 12  2  0
  5 15  1  0
  6 15  2  0
  7  9  1  0
  7 11  1  0
  8  9  1  0
  8 10  1  0
 11 15  1  0
 12 13  1  0
 13 14  2  0
 14 16  1  0
 16 17  2  0
  5 18  1  0
  7 19  1  0
  8 20  1  0
 10 21  1  0
 10 22  1  0
 10 23  1  0
 11 24  1  0
 11 25  1  0
 14 26  1  0
 16 27  1  0
 17 28  1  0
M  END
>  <ALOGPS_LOGP>  (1) 
1.29

>  <ALOGPS_LOGS>  (1) 
-3.11

>  <ALOGPS_SOLUBILITY>  (1) 
2.11e-01 g/l

>  <DATABASE_ID>  (1) 
DB01423

>  <DATABASE_NAME>  (1) 
drugbank

>  <DRUGBANK_ID>  (1) 
DB01423

>  <DRUG_GROUPS>  (1) 
approved

>  <EXACT_MASS>  (1) 
273.012949225

>  <FORMULA>  (1) 
C10H11NO4S2

>  <GENERIC_NAME>  (1) 
Stepronin

>  <INCHI_IDENTIFIER>  (1) 
InChI=1S/C10H11NO4S2/c1-6(9(14)11-5-8(12)13)17-10(15)7-3-2-4-16-7/h2-4,6H,5H2,1H3,(H,11,14)(H,12,13)

>  <INCHI_KEY>  (1) 
JNYSEDHQJCOWQU-UHFFFAOYSA-N

>  <JCHEM_ACCEPTOR_COUNT>  (1) 
4

>  <JCHEM_AVERAGE_POLARIZABILITY>  (1) 
25.97994124864202

>  <JCHEM_BIOAVAILABILITY>  (1) 
1

>  <JCHEM_DONOR_COUNT>  (1) 
2

>  <JCHEM_FORMAL_CHARGE>  (1) 
0

>  <JCHEM_GHOSE_FILTER>  (1) 
1

>  <JCHEM_IUPAC>  (1) 
2-[2-(thiophene-2-carbonylsulfanyl)propanamido]acetic acid

>  <JCHEM_LOGP>  (1) 
1.274364078

>  <JCHEM_MDDR_LIKE_RULE>  (1) 
0

>  <JCHEM_NUMBER_OF_RINGS>  (1) 
1

>  <JCHEM_PHYSIOLOGICAL_CHARGE>  (1) 
-1

>  <JCHEM_PKA>  (1) 
14.635522438272407

>  <JCHEM_PKA_STRONGEST_ACIDIC>  (1) 
3.5625301696581406

>  <JCHEM_PKA_STRONGEST_BASIC>  (1) 
-4.6328873773207855

>  <JCHEM_POLAR_SURFACE_AREA>  (1) 
83.47

>  <JCHEM_REFRACTIVITY>  (1) 
64.7985

>  <JCHEM_ROTATABLE_BOND_COUNT>  (1) 
6

>  <JCHEM_RULE_OF_FIVE>  (1) 
1

>  <JCHEM_TRADITIONAL_IUPAC>  (1) 
stepronin

>  <JCHEM_VEBER_RULE>  (1) 
0

>  <MOLECULAR_WEIGHT>  (1) 
273.329

>  <SALTS>  (1) 
Stepronin sodium

>  <SMILES>  (1) 
CC(SC(=O)C1=CC=CS1)C(=O)NCC(O)=O

>  <SYNONYMS>  (1) 
Stepronine; Stepronino; Steproninum

$$$$
