1110
     RDKit          2D

 39 41  0  0  1  0  0  0  0  0999 V2000
    3.7934   -0.6188    0.0000 Cl  0  0  0  0  0  0  0  0  0  0  0  0
    5.2223   -3.0938    0.0000 Cl  0  0  0  0  0  0  0  0  0  0  0  0
    4.5079    3.0938    0.0000 Cl  0  0  0  0  0  0  0  0  0  0  0  0
    1.6500    3.0938    0.0000 Cl  0  0  0  0  0  0  0  0  0  0  0  0
    4.5079    0.6188    0.0000 O   0  0  0  0  0  0  0  0  0  0  0  0
    5.9369    1.4438    0.0000 N   0  0  0  0  0  0  0  0  0  0  0  0
    6.3494    2.7133    0.0000 N   0  0  0  0  0  0  0  0  0  0  0  0
    5.2223    0.2063    0.0000 C   0  0  0  0  0  0  0  0  0  0  0  0
    5.9369    0.6188    0.0000 C   0  0  0  0  0  0  0  0  0  0  0  0
    5.2223   -0.6188    0.0000 C   0  0  0  0  0  0  0  0  0  0  0  0
    4.5079    1.4438    0.0000 C   0  0  0  0  0  0  0  0  0  0  0  0
    4.5079   -1.0313    0.0000 C   0  0  0  0  0  0  0  0  0  0  0  0
    5.9369   -1.0313    0.0000 C   0  0  0  0  0  0  0  0  0  0  0  0
    3.7934    1.8563    0.0000 C   0  0  0  0  0  0  0  0  0  0  0  0
    5.2694    1.9287    0.0000 C   0  0  0  0  0  0  0  0  0  0  0  0
    6.6043    1.9287    0.0000 C   0  0  0  0  0  0  0  0  0  0  0  0
    4.5079   -1.8563    0.0000 C   0  0  0  0  0  0  0  0  0  0  0  0
    5.9369   -1.8563    0.0000 C   0  0  0  0  0  0  0  0  0  0  0  0
    5.2223   -2.2688    0.0000 C   0  0  0  0  0  0  0  0  0  0  0  0
    5.5244    2.7133    0.0000 C   0  0  0  0  0  0  0  0  0  0  0  0
    3.7934    2.6812    0.0000 C   0  0  0  0  0  0  0  0  0  0  0  0
    3.0790    1.4438    0.0000 C   0  0  0  0  0  0  0  0  0  0  0  0
    3.0790    3.0938    0.0000 C   0  0  0  0  0  0  0  0  0  0  0  0
    2.3644    1.8563    0.0000 C   0  0  0  0  0  0  0  0  0  0  0  0
    2.3644    2.6812    0.0000 C   0  0  0  0  0  0  0  0  0  0  0  0
    0.0000    0.0000    0.0000 H   0  0  0  0  0  0  0  0  0  0  0  0
    0.0000    0.0000    0.0000 H   0  0  0  0  0  0  0  0  0  0  0  0
    0.0000    0.0000    0.0000 H   0  0  0  0  0  0  0  0  0  0  0  0
    0.0000    0.0000    0.0000 H   0  0  0  0  0  0  0  0  0  0  0  0
    0.0000    0.0000    0.0000 H   0  0  0  0  0  0  0  0  0  0  0  0
    0.0000    0.0000    0.0000 H   0  0  0  0  0  0  0  0  0  0  0  0
    0.0000    0.0000    0.0000 H   0  0  0  0  0  0  0  0  0  0  0  0
    0.0000    0.0000    0.0000 H   0  0  0  0  0  0  0  0  0  0  0  0
    0.0000    0.0000    0.0000 H   0  0  0  0  0  0  0  0  0  0  0  0
    0.0000    0.0000    0.0000 H   0  0  0  0  0  0  0  0  0  0  0  0
    0.0000    0.0000    0.0000 H   0  0  0  0  0  0  0  0  0  0  0  0
    0.0000    0.0000    0.0000 H   0  0  0  0  0  0  0  0  0  0  0  0
    0.0000    0.0000    0.0000 H   0  0  0  0  0  0  0  0  0  0  0  0
    0.0000    0.0000    0.0000 H   0  0  0  0  0  0  0  0  0  0  0  0
  1 12  1  0
  2 19  1  0
  3 21  1  0
  4 25  1  0
  5  8  1  0
  5 11  1  0
  6  9  1  0
  6 15  1  0
  6 16  1  0
  7 16  2  0
  7 20  1  0
  8  9  1  0
  8 10  1  0
 10 12  2  0
 10 13  1  0
 11 14  1  0
 12 17  1  0
 13 18  2  0
 14 21  2  0
 14 22  1  0
 15 20  2  0
 17 19  2  0
 18 19  1  0
 21 23  1  0
 22 24  2  0
 23 25  2  0
 24 25  1  0
  8 26  1  0
  9 27  1  0
  9 28  1  0
 11 29  1  0
 11 30  1  0
 13 31  1  0
 15 32  1  0
 16 33  1  0
 17 34  1  0
 18 35  1  0
 20 36  1  0
 22 37  1  0
 23 38  1  0
 24 39  1  0
M  END
>  <ALOGPS_LOGP>  (1) 
5.86

>  <ALOGPS_LOGS>  (1) 
-5.74

>  <ALOGPS_SOLUBILITY>  (1) 
7.63e-04 g/l

>  <DATABASE_ID>  (1) 
DB01110

>  <DATABASE_NAME>  (1) 
drugbank

>  <DRUGBANK_ID>  (1) 
DB01110

>  <DRUG_GROUPS>  (1) 
approved; investigational; vet_approved

>  <EXACT_MASS>  (1) 
413.986023908

>  <FORMULA>  (1) 
C18H14Cl4N2O

>  <GENERIC_NAME>  (1) 
Miconazole

>  <INCHI_IDENTIFIER>  (1) 
InChI=1S/C18H14Cl4N2O/c19-13-2-1-12(16(21)7-13)10-25-18(9-24-6-5-23-11-24)15-4-3-14(20)8-17(15)22/h1-8,11,18H,9-10H2

>  <INCHI_KEY>  (1) 
BYBLEWFAAKGYCD-UHFFFAOYSA-N

>  <INTERNATIONAL_BRANDS>  (1) 
Daktarin; Decocort; Femizol-M; Gyno-Daktarin; Miconazex; Monistat; Monistat-Derm; Zeasorb-AF; Zimycan

>  <JCHEM_ACCEPTOR_COUNT>  (1) 
2

>  <JCHEM_AVERAGE_POLARIZABILITY>  (1) 
39.54459918917317

>  <JCHEM_BIOAVAILABILITY>  (1) 
1

>  <JCHEM_DONOR_COUNT>  (1) 
0

>  <JCHEM_FORMAL_CHARGE>  (1) 
0

>  <JCHEM_GHOSE_FILTER>  (1) 
0

>  <JCHEM_IUPAC>  (1) 
1-[2-(2,4-dichlorophenyl)-2-[(2,4-dichlorophenyl)methoxy]ethyl]-1H-imidazole

>  <JCHEM_LOGP>  (1) 
5.956368360333332

>  <JCHEM_MDDR_LIKE_RULE>  (1) 
1

>  <JCHEM_NUMBER_OF_RINGS>  (1) 
3

>  <JCHEM_PHYSIOLOGICAL_CHARGE>  (1) 
0

>  <JCHEM_PKA_STRONGEST_BASIC>  (1) 
6.767291901565906

>  <JCHEM_POLAR_SURFACE_AREA>  (1) 
27.05

>  <JCHEM_REFRACTIVITY>  (1) 
103.06760000000001

>  <JCHEM_ROTATABLE_BOND_COUNT>  (1) 
6

>  <JCHEM_RULE_OF_FIVE>  (1) 
0

>  <JCHEM_TRADITIONAL_IUPAC>  (1) 
miconazole

>  <JCHEM_VEBER_RULE>  (1) 
1

>  <MOLECULAR_WEIGHT>  (1) 
416.129

>  <PRODUCTS>  (1) 
3M Cavilon Antifungal; 7 Day Vaginal; Aloe Vesta Antifungal; Aloe Vesta Clear Antifungal; Aloe Vesta Clear Antifungal 141g; Aloe Vesta Clear Antifungal 56g; Anti-Fungal; Antifungal; Antifungal Body; Antifungal Cream; Antifungal Skin Care CVS; Athlet Foot Well at Walgreens; Athletes Foot; Athletes Foot Spray; Azolen; Basic Care miconazole 1; Baza Antifungal; Bf-micozo; Budpak Antifungal Miconazole Nitrate; Care One Miconazole 1; Care One Miconazole 3; Care One Miconazole 7; CareOne Miconazole 3; Carrington Antifungal; Clearly Confident; Conazol; Critic Aid Clear AF; DB Antifungal foot; DG Health Miconazole; DermaSana; Dermagungal; Desenex; Dg Health Miconazole 3; Dynarex Antifungal Powder; Elta Trivase; Equaline Athletes Foot; Equaline Miconazole 1; Equaline Miconazole 3; Equaline Miconazole 7; Equate Athletes Foot; Equate Miconazole 1; Exchange Select Miconazole 1; Family Wellness Miconazole 3; Femmesil Creme Maximum Strength; Femmesil Maximum Strength; Foot Silka; Fungoid Tincture; Fungoid Tincture Treatment Kit; GenRx Daily Defense Antifungal; Good Neighbor Pharmacy Athletes Foot Relief; Good Neighbor Pharmacy Athletes foot Relief Antifungal; Good Neighbor Pharmacy Jock Itch Relief; Good Neighbor Pharmacy Jock Itch Relief Antifungal; Good Neighbor Pharmacy Miconazole 1; Good Neighbor Pharmacy Miconazole 3; Good Neighbor Pharmacy Miconazole 7; Good Neighbor Pharmacy Miconazole Nitrate; Good Sense Miconazole 1; Good Sense Miconazole 3; Good Sense Miconazole 7; Green Tetterine; Harris Teeter Miconazole 3; Harris Teeter Miconazole 7; Healthy Accents Miconazole 3; Healthy Accents Miconazole 7; Hongo Killer; Image Essentials Miconazole Treatment; Jock Itch Relief; Kaiser Permanente Miconazole Nitrate; Kendall Antifungal; Lagicam antifungal; Leader Medicated; Leader Miconazole 1; Lotrimin AF Antifungal; Lotrimin Antifungal; MICONAZOLE Nitrate 2% Cream ANTIFUNGAL; MacerRx Web; MakeSense; Medicated Anti-Fungal Miconazole; Meijer Jock Itch Relief Antifungal; Meijer Miconazole 3; Micatin; Micatin Cream - 2%; Micatin Powder Spray     - Unscented 2%; Miconazole; Miconazole 1; Miconazole 1 Feminine Care; Miconazole 1 Yeast Infection Relief; Miconazole 3; Miconazole 3 Combination Pack; Miconazole 3 Day; Miconazole 3 Day Ovule Treatment 400mg; Miconazole 7; Miconazole 7 - Crm Vag 2%; Miconazole Nitrate; Miconazole Nitrate Vaginal Cream 2%; Miconazole Nitrate Vaginal Cream USP, 2%; Miconazole nitrate; Miconole; Micozole; Micro-Guard (AF); Molecular AF Molecular Cream; Monazole 7 - Crm 20mg/g; Monicure Combo; Monistat 1 Combination Pack; Monistat 1 Combination Pack Triple Action; Monistat 1 Vaginal Ovule; Monistat 3 3-Day Pre-filled Applicators; Monistat 3 Combination Pack; Monistat 3 Combination Pack 3 Ovule Inserts; Monistat 3 Combination Pack Triple Action; Monistat 3 Dual-pak; Monistat 3 Vaginal Cream; Monistat 3 Vaginal Ovules; Monistat 7 7-Day Disposable Applicators; Monistat 7 Combination Pack 7-Day Pre-Filled Applicators; Monistat 7 Combination Pack Triple Action; Monistat 7 Dual-pak; Monistat 7 Sup Vag 100mg; Monistat 7 Vaginal Cream; Monistat 7 with Reusable Applicator; Monistat Derm Cream; Nail MD; Novana Antifungal Barrier with Miconazole; Oravig; Premier Value Miconazole 3; PreviSense Antifungal Moisture Barrier with Protease Technology; Quality Choice 3 Day Vaginal; Rash Relief Antifungal; Remedy Antifungal; Remedy Antifungal Targeted Treatment; Remedy Antifungal With Olivamine; Remedy with Phytoplex; Remedy with Phytoplex Antifungal Clear; Rexall Miconazole 3; Secura Antifungal Extra Thick; Secura Antifungal Greaseless; Selan Antifungal; Signature Care Athletes Foot; Signature Care Miconazole 1; Signature Care Miconazole 3; Signature Care Miconazole 7; Skin Protector With Breathable Barrier; Smart Sense 3 Day Treatment; Smart Sense 3 Day Treatment Vaginal Antifungal; Smart Sense 7 Day Treatment; Smart Sense Miconazole 1; Smart Sense Miconazole 3; Smart Sense Miconazole 7; Smart Sense miconazole 1; Soothe And Cool Treat; Sunmark Antifungal; Sunmark Miconazole 3; Sunmark Miconazole 7; Sunmark Miconazole Nitrate Antifungal; THERA Antifungal Body; Terrasil Rapid-Relief Vaginal; Tineacide Antifungal; Ting Spray Powder; TopCare Miconazole 3 Yeast Infection Relief; Topcare Miconazole 1; Topcare Miconazole 3 Combination Pack; Topcare Miconazole 7; Touchless Care ANTIFUNGAL; Touchless Care Antifungal; Triple Paste-AF; Up and Up Jock Itch Relief; Up and Up Miconazole; Up and Up Miconazole 1; Up and Up Miconazole 3; Up and Up Miconazole 7; Vagistat-3; Viniferamine Antifungal Cream; Vite20; Vusion; Walgreens Medicated Antifungal Athletes Foot; Welmedix HomeCare PRO 2-in-1 Antifungal and Skin Protectant; White Tetterine; Zeasorb; Zeasorb AF

>  <SALTS>  (1) 
Miconazole nitrate

>  <SECONDARY_ACCESSION_NUMBERS>  (1) 
APRD01115

>  <SMILES>  (1) 
ClC1=CC(Cl)=C(COC(CN2C=CN=C2)C2=C(Cl)C=C(Cl)C=C2)C=C1

>  <SYNONYMS>  (1) 
1-(2,4-Dichloro-beta-((2,4-dichlorobenzyl)oxy)phenethyl)imidazole; 1-[2-(2,4-Dichloro-benzyloxy)-2-(2,4-dichloro-phenyl)-ethyl]-1H-imidazole

$$$$
