1133
     RDKit          2D

 26 26  0  0  0  0  0  0  0  0999 V2000
    2.3644   -2.8091    0.0000 Cl  0  0  0  0  0  0  0  0  0  0  0  0
    2.3644    0.4909    0.0000 S   0  0  0  0  0  0  0  0  0  0  0  0
    3.0790    1.7284    0.0000 P   0  0  0  0  0  0  0  0  0  0  0  0
    3.7934    0.4909    0.0000 P   0  0  0  0  0  0  0  0  0  0  0  0
    3.0790    2.5534    0.0000 O   0  0  0  0  0  0  0  0  0  0  0  0
    3.9040    1.7284    0.0000 O   0  0  0  0  0  0  0  0  0  0  0  0
    4.5079    0.0784    0.0000 O   0  0  0  0  0  0  0  0  0  0  0  0
    4.2059    1.2053    0.0000 O   0  0  0  0  0  0  0  0  0  0  0  0
    2.2540    1.7284    0.0000 O   0  0  0  0  0  0  0  0  0  0  0  0
    3.3809   -0.2236    0.0000 O   0  0  0  0  0  0  0  0  0  0  0  0
    3.0790    0.9034    0.0000 C   0  0  0  0  0  0  0  0  0  0  0  0
    2.3644   -0.3341    0.0000 C   0  0  0  0  0  0  0  0  0  0  0  0
    3.0790   -0.7466    0.0000 C   0  0  0  0  0  0  0  0  0  0  0  0
    1.6500   -0.7466    0.0000 C   0  0  0  0  0  0  0  0  0  0  0  0
    3.0790   -1.5716    0.0000 C   0  0  0  0  0  0  0  0  0  0  0  0
    1.6500   -1.5716    0.0000 C   0  0  0  0  0  0  0  0  0  0  0  0
    2.3644   -1.9841    0.0000 C   0  0  0  0  0  0  0  0  0  0  0  0
    0.0000    0.0000    0.0000 H   0  0  0  0  0  0  0  0  0  0  0  0
    0.0000    0.0000    0.0000 H   0  0  0  0  0  0  0  0  0  0  0  0
    0.0000    0.0000    0.0000 H   0  0  0  0  0  0  0  0  0  0  0  0
    0.0000    0.0000    0.0000 H   0  0  0  0  0  0  0  0  0  0  0  0
    0.0000    0.0000    0.0000 H   0  0  0  0  0  0  0  0  0  0  0  0
    0.0000    0.0000    0.0000 H   0  0  0  0  0  0  0  0  0  0  0  0
    0.0000    0.0000    0.0000 H   0  0  0  0  0  0  0  0  0  0  0  0
    0.0000    0.0000    0.0000 H   0  0  0  0  0  0  0  0  0  0  0  0
    0.0000    0.0000    0.0000 H   0  0  0  0  0  0  0  0  0  0  0  0
  1 17  1  0
  2 11  1  0
  2 12  1  0
  3  5  1  0
  3  6  1  0
  3  9  2  0
  3 11  1  0
  4  7  1  0
  4  8  1  0
  4 10  2  0
  4 11  1  0
 12 13  2  0
 12 14  1  0
 13 15  1  0
 14 16  2  0
 15 17  2  0
 16 17  1  0
  5 18  1  0
  6 19  1  0
  7 20  1  0
  8 21  1  0
 11 22  1  0
 13 23  1  0
 14 24  1  0
 15 25  1  0
 16 26  1  0
M  END
>  <ALOGPS_LOGP>  (1) 
0.62

>  <ALOGPS_LOGS>  (1) 
-1.66

>  <ALOGPS_SOLUBILITY>  (1) 
6.97e+00 g/l

>  <DATABASE_ID>  (1) 
DB01133

>  <DATABASE_NAME>  (1) 
drugbank

>  <DRUGBANK_ID>  (1) 
DB01133

>  <DRUG_GROUPS>  (1) 
approved; investigational; vet_approved

>  <EXACT_MASS>  (1) 
317.928359441

>  <FORMULA>  (1) 
C7H9ClO6P2S

>  <GENERIC_NAME>  (1) 
Tiludronic acid

>  <INCHI_IDENTIFIER>  (1) 
InChI=1S/C7H9ClO6P2S/c8-5-1-3-6(4-2-5)17-7(15(9,10)11)16(12,13)14/h1-4,7H,(H2,9,10,11)(H2,12,13,14)

>  <INCHI_KEY>  (1) 
DKJJVAGXPKPDRL-UHFFFAOYSA-N

>  <INTERNATIONAL_BRANDS>  (1) 
Skelid

>  <JCHEM_ACCEPTOR_COUNT>  (1) 
6

>  <JCHEM_AVERAGE_POLARIZABILITY>  (1) 
25.370106515201513

>  <JCHEM_BIOAVAILABILITY>  (1) 
1

>  <JCHEM_DONOR_COUNT>  (1) 
4

>  <JCHEM_FORMAL_CHARGE>  (1) 
0

>  <JCHEM_GHOSE_FILTER>  (1) 
1

>  <JCHEM_IUPAC>  (1) 
{[(4-chlorophenyl)sulfanyl](phosphono)methyl}phosphonic acid

>  <JCHEM_LOGP>  (1) 
1.322081915

>  <JCHEM_MDDR_LIKE_RULE>  (1) 
0

>  <JCHEM_NUMBER_OF_RINGS>  (1) 
1

>  <JCHEM_PHYSIOLOGICAL_CHARGE>  (1) 
-2

>  <JCHEM_PKA>  (1) 
1.7849774430028384

>  <JCHEM_PKA_STRONGEST_ACIDIC>  (1) 
1.0278607867781062

>  <JCHEM_POLAR_SURFACE_AREA>  (1) 
115.06

>  <JCHEM_REFRACTIVITY>  (1) 
65.1071

>  <JCHEM_ROTATABLE_BOND_COUNT>  (1) 
4

>  <JCHEM_RULE_OF_FIVE>  (1) 
1

>  <JCHEM_TRADITIONAL_IUPAC>  (1) 
tiludronate

>  <JCHEM_VEBER_RULE>  (1) 
0

>  <MOLECULAR_WEIGHT>  (1) 
318.608

>  <SALTS>  (1) 
Tiludronate Disodium

>  <SECONDARY_ACCESSION_NUMBERS>  (1) 
APRD01259

>  <SMILES>  (1) 
OP(O)(=O)C(SC1=CC=C(Cl)C=C1)P(O)(O)=O

>  <SYNONYMS>  (1) 
Acide tiludronique; Acido tiludronico; Acidum tiludronicum; Tiludronate

$$$$
