1127
     RDKit          2D

 39 41  0  0  1  0  0  0  0  0999 V2000
    3.7934   -0.6188    0.0000 Cl  0  0  0  0  0  0  0  0  0  0  0  0
    5.2223   -3.0938    0.0000 Cl  0  0  0  0  0  0  0  0  0  0  0  0
    1.6500    3.0938    0.0000 Cl  0  0  0  0  0  0  0  0  0  0  0  0
    4.5079    0.6188    0.0000 O   0  0  0  0  0  0  0  0  0  0  0  0
    5.9369    1.4438    0.0000 N   0  0  0  0  0  0  0  0  0  0  0  0
    6.3494    2.7133    0.0000 N   0  0  0  0  0  0  0  0  0  0  0  0
    5.2223    0.2063    0.0000 C   0  0  0  0  0  0  0  0  0  0  0  0
    5.9369    0.6188    0.0000 C   0  0  0  0  0  0  0  0  0  0  0  0
    5.2223   -0.6188    0.0000 C   0  0  0  0  0  0  0  0  0  0  0  0
    4.5079    1.4438    0.0000 C   0  0  0  0  0  0  0  0  0  0  0  0
    4.5079   -1.0313    0.0000 C   0  0  0  0  0  0  0  0  0  0  0  0
    5.9369   -1.0313    0.0000 C   0  0  0  0  0  0  0  0  0  0  0  0
    3.7934    1.8563    0.0000 C   0  0  0  0  0  0  0  0  0  0  0  0
    5.2694    1.9287    0.0000 C   0  0  0  0  0  0  0  0  0  0  0  0
    6.6043    1.9287    0.0000 C   0  0  0  0  0  0  0  0  0  0  0  0
    4.5079   -1.8563    0.0000 C   0  0  0  0  0  0  0  0  0  0  0  0
    5.9369   -1.8563    0.0000 C   0  0  0  0  0  0  0  0  0  0  0  0
    5.2223   -2.2688    0.0000 C   0  0  0  0  0  0  0  0  0  0  0  0
    5.5244    2.7133    0.0000 C   0  0  0  0  0  0  0  0  0  0  0  0
    3.0790    1.4438    0.0000 C   0  0  0  0  0  0  0  0  0  0  0  0
    3.7934    2.6812    0.0000 C   0  0  0  0  0  0  0  0  0  0  0  0
    2.3644    1.8563    0.0000 C   0  0  0  0  0  0  0  0  0  0  0  0
    3.0790    3.0938    0.0000 C   0  0  0  0  0  0  0  0  0  0  0  0
    2.3644    2.6812    0.0000 C   0  0  0  0  0  0  0  0  0  0  0  0
    0.0000    0.0000    0.0000 H   0  0  0  0  0  0  0  0  0  0  0  0
    0.0000    0.0000    0.0000 H   0  0  0  0  0  0  0  0  0  0  0  0
    0.0000    0.0000    0.0000 H   0  0  0  0  0  0  0  0  0  0  0  0
    0.0000    0.0000    0.0000 H   0  0  0  0  0  0  0  0  0  0  0  0
    0.0000    0.0000    0.0000 H   0  0  0  0  0  0  0  0  0  0  0  0
    0.0000    0.0000    0.0000 H   0  0  0  0  0  0  0  0  0  0  0  0
    0.0000    0.0000    0.0000 H   0  0  0  0  0  0  0  0  0  0  0  0
    0.0000    0.0000    0.0000 H   0  0  0  0  0  0  0  0  0  0  0  0
    0.0000    0.0000    0.0000 H   0  0  0  0  0  0  0  0  0  0  0  0
    0.0000    0.0000    0.0000 H   0  0  0  0  0  0  0  0  0  0  0  0
    0.0000    0.0000    0.0000 H   0  0  0  0  0  0  0  0  0  0  0  0
    0.0000    0.0000    0.0000 H   0  0  0  0  0  0  0  0  0  0  0  0
    0.0000    0.0000    0.0000 H   0  0  0  0  0  0  0  0  0  0  0  0
    0.0000    0.0000    0.0000 H   0  0  0  0  0  0  0  0  0  0  0  0
    0.0000    0.0000    0.0000 H   0  0  0  0  0  0  0  0  0  0  0  0
  1 11  1  0
  2 18  1  0
  3 24  1  0
  4  7  1  0
  4 10  1  0
  5  8  1  0
  5 14  1  0
  5 15  1  0
  6 15  2  0
  6 19  1  0
  7  8  1  0
  7  9  1  0
  9 11  2  0
  9 12  1  0
 10 13  1  0
 11 16  1  0
 12 17  2  0
 13 20  2  0
 13 21  1  0
 14 19  2  0
 16 18  2  0
 17 18  1  0
 20 22  1  0
 21 23  2  0
 22 24  2  0
 23 24  1  0
  7 25  1  0
  8 26  1  0
  8 27  1  0
 10 28  1  0
 10 29  1  0
 12 30  1  0
 14 31  1  0
 15 32  1  0
 16 33  1  0
 17 34  1  0
 19 35  1  0
 20 36  1  0
 21 37  1  0
 22 38  1  0
 23 39  1  0
M  END
>  <ALOGPS_LOGP>  (1) 
4.67

>  <ALOGPS_LOGS>  (1) 
-5.41

>  <ALOGPS_SOLUBILITY>  (1) 
1.48e-03 g/l

>  <DATABASE_ID>  (1) 
DB01127

>  <DATABASE_NAME>  (1) 
drugbank

>  <DRUGBANK_ID>  (1) 
DB01127

>  <DRUG_GROUPS>  (1) 
approved

>  <EXACT_MASS>  (1) 
380.024996233

>  <FORMULA>  (1) 
C18H15Cl3N2O

>  <GENERIC_NAME>  (1) 
Econazole

>  <INCHI_IDENTIFIER>  (1) 
InChI=1S/C18H15Cl3N2O/c19-14-3-1-13(2-4-14)11-24-18(10-23-8-7-22-12-23)16-6-5-15(20)9-17(16)21/h1-9,12,18H,10-11H2

>  <INCHI_KEY>  (1) 
LEZWWPYKPKIXLL-UHFFFAOYSA-N

>  <INTERNATIONAL_BRANDS>  (1) 
Ecostatin; Gyno-Pevaryl; Ifenec; Palavale; Pevaryl; Spectazole

>  <JCHEM_ACCEPTOR_COUNT>  (1) 
2

>  <JCHEM_AVERAGE_POLARIZABILITY>  (1) 
37.37246253608513

>  <JCHEM_BIOAVAILABILITY>  (1) 
1

>  <JCHEM_DONOR_COUNT>  (1) 
0

>  <JCHEM_FORMAL_CHARGE>  (1) 
0

>  <JCHEM_GHOSE_FILTER>  (1) 
1

>  <JCHEM_IUPAC>  (1) 
1-{2-[(4-chlorophenyl)methoxy]-2-(2,4-dichlorophenyl)ethyl}-1H-imidazole

>  <JCHEM_LOGP>  (1) 
5.352323684

>  <JCHEM_MDDR_LIKE_RULE>  (1) 
1

>  <JCHEM_NUMBER_OF_RINGS>  (1) 
3

>  <JCHEM_PHYSIOLOGICAL_CHARGE>  (1) 
0

>  <JCHEM_PKA_STRONGEST_BASIC>  (1) 
6.767291901775012

>  <JCHEM_POLAR_SURFACE_AREA>  (1) 
27.05

>  <JCHEM_REFRACTIVITY>  (1) 
98.26280000000001

>  <JCHEM_ROTATABLE_BOND_COUNT>  (1) 
6

>  <JCHEM_RULE_OF_FIVE>  (1) 
0

>  <JCHEM_TRADITIONAL_IUPAC>  (1) 
econazole

>  <JCHEM_VEBER_RULE>  (1) 
1

>  <MOLECULAR_WEIGHT>  (1) 
381.684

>  <PRODUCTS>  (1) 
Econazole Nitrate; Econazole Nitrate Cream; Econazole Nitrate Topical Foam, 1%; Ecostatin Cream 1%; Ecostatin Vaginal Ovule 150mg; Ecoza

>  <SECONDARY_ACCESSION_NUMBERS>  (1) 
APRD00943

>  <SMILES>  (1) 
ClC1=CC=C(COC(CN2C=CN=C2)C2=C(Cl)C=C(Cl)C=C2)C=C1

>  <SYNONYMS>  (1) 
Econazole Nitrate

$$$$
