
     RDKit          2D

 15 15  0  0  0  0  0  0  0  0999 V2000
    0.0000    2.4750    0.0000 N   0  0  0  0  0  0  0  0  0  0  0  0
    0.7145    2.0625    0.0000 C   0  0  0  0  0  0  0  0  0  0  0  0
    1.4289    2.4750    0.0000 O   0  0  0  0  0  0  0  0  0  0  0  0
    0.7145    1.2375    0.0000 C   0  0  0  0  0  0  0  0  0  0  0  0
    1.4289    0.8250    0.0000 C   0  0  0  0  0  0  0  0  0  0  0  0
    1.4289    0.0000    0.0000 C   0  0  0  0  0  0  0  0  0  0  0  0
    0.7145   -0.4125    0.0000 C   0  0  0  0  0  0  0  0  0  0  0  0
    0.0000    0.0000    0.0000 N   0  0  0  0  0  0  0  0  0  0  0  0
    0.0000    0.8250    0.0000 C   0  0  0  0  0  0  0  0  0  0  0  0
    0.0000    0.0000    0.0000 H   0  0  0  0  0  0  0  0  0  0  0  0
    0.0000    0.0000    0.0000 H   0  0  0  0  0  0  0  0  0  0  0  0
    0.0000    0.0000    0.0000 H   0  0  0  0  0  0  0  0  0  0  0  0
    0.0000    0.0000    0.0000 H   0  0  0  0  0  0  0  0  0  0  0  0
    0.0000    0.0000    0.0000 H   0  0  0  0  0  0  0  0  0  0  0  0
    0.0000    0.0000    0.0000 H   0  0  0  0  0  0  0  0  0  0  0  0
  1  2  1  0
  2  3  2  0
  2  4  1  0
  4  5  2  0
  5  6  1  0
  6  7  2  0
  7  8  1  0
  8  9  2  0
  4  9  1  0
  1 10  1  0
  1 11  1  0
  5 12  1  0
  6 13  1  0
  7 14  1  0
  9 15  1  0
M  END
>  <ALOGPS_LOGP>  (1) 
-0.45

>  <ALOGPS_LOGS>  (1) 
-0.39

>  <ALOGPS_SOLUBILITY>  (1) 
5.01e+01 g/l

>  <DATABASE_ID>  (1) 
DB02701

>  <DATABASE_NAME>  (1) 
drugbank

>  <DRUGBANK_ID>  (1) 
DB02701

>  <DRUG_GROUPS>  (1) 
approved

>  <EXACT_MASS>  (1) 
122.048012824

>  <FORMULA>  (1) 
C6H6N2O

>  <GENERIC_NAME>  (1) 
Nicotinamide

>  <INCHI_IDENTIFIER>  (1) 
InChI=1S/C6H6N2O/c7-6(9)5-2-1-3-8-4-5/h1-4H,(H2,7,9)

>  <INCHI_KEY>  (1) 
DFPAKSUCGFBDDF-UHFFFAOYSA-N

>  <JCHEM_ACCEPTOR_COUNT>  (1) 
2

>  <JCHEM_AVERAGE_POLARIZABILITY>  (1) 
11.711267443233845

>  <JCHEM_BIOAVAILABILITY>  (1) 
1

>  <JCHEM_DONOR_COUNT>  (1) 
1

>  <JCHEM_FORMAL_CHARGE>  (1) 
0

>  <JCHEM_GHOSE_FILTER>  (1) 
0

>  <JCHEM_IUPAC>  (1) 
pyridine-3-carboxamide

>  <JCHEM_LOGP>  (1) 
-0.3937863166666665

>  <JCHEM_MDDR_LIKE_RULE>  (1) 
0

>  <JCHEM_NUMBER_OF_RINGS>  (1) 
1

>  <JCHEM_PHYSIOLOGICAL_CHARGE>  (1) 
0

>  <JCHEM_PKA_STRONGEST_ACIDIC>  (1) 
13.38576188738299

>  <JCHEM_PKA_STRONGEST_BASIC>  (1) 
3.634885165831314

>  <JCHEM_POLAR_SURFACE_AREA>  (1) 
55.980000000000004

>  <JCHEM_REFRACTIVITY>  (1) 
32.979499999999994

>  <JCHEM_ROTATABLE_BOND_COUNT>  (1) 
1

>  <JCHEM_RULE_OF_FIVE>  (1) 
1

>  <JCHEM_TRADITIONAL_IUPAC>  (1) 
nicotinamide

>  <JCHEM_VEBER_RULE>  (1) 
0

>  <MOLECULAR_WEIGHT>  (1) 
122.1246

>  <PRODUCTS>  (1) 
A.H.C. C-cream; A.H.C. C-serum; A.H.C. C-toner; A.H.c Cotton 100 Mask Multi Peptide; A.H.c Cotton 100 Mask Skin Ceramide; A.H.c Cotton 100 Mask Soy Isoflavone; A.H.c Cotton 100 Mask Triple Hyaluronic; ABALONE CrystalDouble EX; ABALONE CrystalDouble EX SERUM; AHA 7 Whitehead Power Liquid; AHC Revitalizing Special Gen Cream; AHC Revitalizing Special Gen Mask; AHC Revitalizing Special Gen Serum; AHC Revitalizing Special Gen Solution; AHC Vital C Complex Mask; AHC Whitening Special Gen Cream; AHC Whitening Special Gen Serum; AHC Whitening Special Gen Solution; ALA-C Snail Cell Reparing Essence; ATONO2 Oxygen Mothers Cream; Abalone Aqua Flood Water; Abalone Crystaldouble EX Bb; Abalone Crystaldouble EX Cc; Abalone Crystaldouble EX Homme; Abalone Homme Face; Acropass Trouble Cure; Active FE; Adrenergy Tablets; Adult Infuvite Multiple Vitamins; Ahc Premium Vital C Complex Cellulose Mask; Alertonic; All New TS; Allbee With C 550 Cap; Allbee With Vitamin C Cap; Allvit Revital Up; Alsimine W Vitamins A D; Always Bright Spot Lumedic; Am Caps; An Adc Sp Intensive Moisture Essence; Antibe Beausenne Special Ampoule; Aplin Spot All Kill; Aplin Spot Remover; Appedrine; Aprilskin Magic Snow Fixing Foundation 22 Pink Beige; Aprilskin Magic Snow Fixing Foundation 23 Natural Beige; Aqua Bab Modeling Mask; Aqua Collagen Multi Vitamin Hydro Mask; Aqua Collagen Solu Tion Marine Hydroge L Eye Crea M Mask; Aqua Collagen Solu tion Multi Vitamin Hydroge l Mask; Are You The Real Kung Fu Panda Mask; Are You The Real Poppy Mask; Armax; Armiyou Hydrogen; B 50 Capsules; B C Antistress Cap; B Complex 25mg Vitamin Supplement; B Complex 50 Vitamin Cap; B Complex 50+ Caplet; B Complex 500 Tab; B Complex Plus C 300mg Tab; B Complex Tablets; B Complex W C Forte Cap; B Complex W C and B12 Inj; B Complex W Vit C W Non-med Yeast&liver Tab; B Complex W Vitamin C Fortis Cap; B Complex With C 300mg; B Complex With C 300mg Tab; B Complex With C 550mg; B Compound 50mg Tab; B Plus C 300mg Timed Release; B Stress C + Iron & Vite; B Totum 500; B Virol; B Vitamin Compound With B12 Thunas; B With C 500 Cap; B-100 Caps; B-100 Complex Tablets; B-100 Hi Potency B Vitamins Tab; B-100 Vitamin Supplement; B-50 Complex; B-50 Complex Tab; B-50 Hi Potency B Vitamins Tab; B-Combo; B-complex; B-complex 100; B-complex 50; B-complex Tab; B-complex Tablets; B-complex With Vitamin C, Biotin, Folic Acid; B-plex; B-plex 100; B-plus - Tab; B50 B Complex Tab; B50 Complex; B6-niacinamide Tab; BANILA CO It Radiant CC Tone up; BHA Blackhead Power Liquid; BK Cell 5DAYS OF SECRET SNOW WHITENING; BOTANIC HEAL boH 360 Lifting Solu tion; BOTANIC HEAL boH Air Jet Daily Mask Panthenol; BOTANIC HEAL boH Derma Defense All In One Essence; BOTANIC HEAL boH Derma Intensive Energy Essence; BOTANIC HEAL boH Derma Intensive Panthenol; BOTANIC HEAL boH Gauze Hydra Solu tion; Bacmin; Balanced B 125 Srt; Balanced B-100 B-complex Vitamins Tab; Balanced B-100 Timed Release; Balanced B-50 B-complex Vitamins Tab; Balanced B-50 B-complex Vitamins, Timed Rele; Balanced B-50 Complex; Balanced B-complex Vit + Vit C&e Tab; Balanced B100; Balanced B50 Complex; Barox White Golf; Bellaskin Brightening Contour Essence; Beminal Fortis Elx; Beminal W C Fortis Inj; Beminal With C Fortis Cap; Beminal With C Fortis Pws; Bev B-150; Bio-fen; Biovim Tab; Biovita; Birds Nest Forever Young Multi Care Lifting; Bonnoir Hair Medi; Brucke A.C.C. Cure Ampoule; Brucke Keep Cooling Hydrogel Soothing Mask; Bugs Bunny Chew Multi Vit Plus Iron; Bugs Bunny and Friends Multiple Vitamins; C-B Complex; CAVIALL Wrinkle-Free PowerTox; CELLSTORY Plus Cell Activator Ampoule; CELLSTORY Plus Cell Awake Essence; CELLSTORY Plus Cell Calming Mask; CELLSTORY Plus Cell Fluid; CELLSTORY Plus Cell Recovery; CELLSTORY Plus Cell Ultra; CELLSTORY Plus Cellplant Meso Care; CHAGA Anti Wrinkle Eye with fermented chaga extract; CHAGA Anti Wrinkle Skin with fermented chaga extract; CHAGA Anti Wrinkle with fermented chaga extract; CIZAR First Calming Serum; CRE AM2ATE Knight Seahorse; CRE AM2ATE Queen Snow Lotus; Camellia Air Cushion 21 SPF50 PA; Camellia Air Cushion 22 SPF50 PA; Camellia CC Cream 21 SPF45 PA; Camellia CC Cream 22 SPF45 PA; Camellia Calming Sleeping Mask; Camellia Cooling CC 21 SPF50 PA; Camellia Cooling CC 22 SPF50 PA; Camellia Vital Dual Serum; Camellia Wrinkle Free Eye; Capture C-Brightening Ampoule; Capture Collagen Ampoule; Carbassist Tablets; Carione Rg; Caviall Real Caviar Multi-perfection O2 Serum; Cedevita Plus Vitamin Supplement; Cedevita Sugar-free Vitamin Supplement; Cell Renew Bio; Cell Renew Bio Toner; Cellapy A.Repair Plus; Cellapy Haircell; Cellpium Real Mask Pack; Cellpium double essence toner; Cellpium premiumEX hybrid essence; Cellpium premiumEX hybrid toner; Cellpium super richness ampoule; Celonia CM; Centella 70; Centella 80 Eye; Centella 90 Ampoule; Centella Reviving Toner; Centella and Green Tea Callus Mask; Central-vite 18 Essential; Century Complete; Chela Potassium Plus; Chela-chromium 200; Chew.multiple Vits.with Extra C for Children; Chewable Multiple Vit Plus Iron for Children; Chewable Multiple Vitamins Plus Extra C; Chewable Multiple Vitamins Plus Iron Tab; Chewable Multiple Vitamins Tab; Chewable Multiple Vitamins for Children; Chewable Multivitamins; Chewable Multivitamins Plus Iron; Children Choice Multivit Chewable Tab; Children Choice Multivitamin W Iron Chew Tab; Children's Chewable Multi Vit W Iron; Children's Chewable Multi Vitamins; Children's Chewable Multi Vitamins With Iron Tablets; Children's Chewable Multi-vitamin; Children's Chewable Multi-vitamin Complete With Minerals; Children's Chewable Multiple Vit.plus Iron; Children's Chewable Multiple Vitamins (chewable Tablets); Children's Chewable Multiple Vitamins - Tab; Children's Chewable Multiple Vitamins With Extra Vitamin C (chewable Tablets); Children's Chewable Multiple Vitamins With Iron Tablets (chewable Tablets); Children's Chewable Multivitamin and Multimineral; Children's Vitamins Chewable; Children's Vitamins W Iron Chewable; Childrens Chew Multi Vitamin Tab; Childrens Chewable Multiple Vitamins; Childrens Chewable Multiple Vitamins Plus Fe; Childrens Chewable Multiple Vitamins Tab; Childrens Chewable Multivitamins; Childrens Chewable Multivitamins W Iron; Childrens Chewable Vitamin Tab; Childrens Chewable Vitamins; Childrens Multiple Vit and Min Chew Tab; CitraNatal 90 DHA; CitraNatal DHA; CitraNatal Rx; Claon All 4 Cleanser; Clapiel Hyalon Serum; Clerian; Clerian Anti-Hairloss; Clerian H; Complete Mega B; Complete Multivitamins and Minerals Tablets Timed Release; Complete Multivitamins and Minerals for Children; Complex-75; Complexe B 75mg; Complexe B Compose 75; Complexe B-75; Costem cell 5 N; Croq-vit Pour Enfants; DPC Aura Booster Mask; DPC Dual Master Vitamin C; DPC Noblesse Suta Eye; DPC Skin Up Perfection; DPC Whitening Booster Mask; DRH Whitening G2 Serum; Daily Energy Brand B-complex; Daily Whitening Care Sheet Mask; Derma-force; DermaNIC; Dexatrim Tablets; Dht X Hairloss; Dht X Scalp T; Dia-vite; Diaplex; DoctorsLab Returning Platinum Mask; DoctorsLab Returning Platinum Neck; Doll Lash; Dong Sung Monelyn; Dr Cellinme Mask Sheet; Dr Cellinme Skin Care Ampoule; Dr. Cellmo; Dr. Color Effect Red; Dr. Gloderm Tabrx Liftup; Dr. Gloderm Tabrx Liftup Mask; Dr. Gloderm Tabrx Whitening; Dr. Gloderm Tabrx Whitening Mask; Dr. Gloderm Time To Liftup Mask; Dr. Gloderm Time To Whitening Mask; Dr. Pepti CENTELLA TONER; Dr. Pepti INTENSIVE; Dr.G Brightening Up Cushion SPF50 Plus PA Plus Plus Plus; Dr.Jart Dermask Micro Jet Clearing Solution; Dr.althea Aurora Cover Cushion 21; Dr.althea Power Whitening Glutathione; Dr.g Hydra Volume; Dr.g Lock and More A-clear Mask; Dynam Ampoule Et Tablet; E.S.T. Complex; EH Hair Plus Regeneration Hair Care; Earthpals Children's Chewables Multi-vitamin & Mineral Tablets; Ecosom Tonic; Edge Cutimal Cat Whitening Mask; Efferlife Multivitamins and Minerals; Emmune Perfect; Emmune Repair; Emp Collagen Boost; Enrich Core Pack - Children Vitamin and Mineral Supplement; Enviroflex - Tab; Escavite; Essential B Tablets; Everyday Multiple Vitamins; Everyday Multiple Vitamins With Iron; Ez-flex; Feminique W Iron and Calcium Tab; Flinstones Multiple Plus Iron; Flintstones Multiple Vitamins; Flintstones Multiple Vitamins Plus Iron; Flintstones Multiple Vitamins Tab; Flintstones W Extra C Tab; Floriva; Floriva Plus; Folcaps Care One; Foltabs Prenatal; For Kids Only Chewable Multivit. Plus Iron; For Kids Only Chewable Multivitamins - Tab; Forestheal Eye; Forestheal Vitamin C Moisturizer; Forestheal Vitamin C Serum; Formula 6100 Cap; Formula 9 Tab; Formula Cm; Formula Cw; Formula Cw-caplet; Formula D.S.; Formula Js; Formula Pro-B; Fortamines 10 Capsules; Fortamines-10 Comprimes; Fortaplex Inj; Forty Plus Vitamin Supplement; Fresh Mandarin Aromatherapy Mask; GALACTOMYCES 80 Contouring EYE; GD11 Rx SCM S; Galactomyces 70; Galactomyces 90 Ampoule; Galactomyces 95 Whitening Power Essence; Galactomyces First Essence; Galactomyces Radiance Toner; Galactomyces and Rice Callus Mask; Garfield Chewable Multivits Plus Iron Tab; Gd11 Advanced Lab Energy Ampoule; Gem Miracle Black Pearl O2 Whitening; Gem Miracle Black Pearl O2 Whitening Snow Serum; Gem Miracle Black Pearl O2 Whitening Toner; Gemvites Jr Tab Chewable; Gentle Therapy; Geritol Liquid; Gestamine Comprimes; Ginseng; Ginseng Berry 80 Eye Essence; Ginseng Berry 80 Overnight Mask; Ginseng Berry and Ginseng Callus Mask; Ginseng Royal Silk; Ginseng Royal Silk 120ml; Ginseng Royal Silk Ampoule; Ginseng Royal Silk Ampoule 17ml 4ea; Ginseng Royal Silk Boosting Ampoule; Ginseng Royal Silk Cap Sule Essence; Ginseng Royal Silk Eye 25ml; Ginseng Royal Silk Gold Hydroge L Mask; Ginseng Royal Silk Gold Hydroge L Mask 10p; Ginseng Royal Silk Gold Hydroge L Mask 5p; Ginseng Royal Silk Toner; Ginseng Royal Silk Toner 120ml; Ginseng Royal Silk Watery 60g; Ginseng Royal Silk Wrinkle Up Spot; Ginseng Whitening; Globucel - Methode; Glyco-aide Tab; Green Propolis 90 Ampoule; Green Toner; Greentinol Multi Toner; HANSKIN BiO CLEAR PEP MASK Brightening and Moisture; HANSKIN BiO FILL PEP MASK Firming and Moisture; HANSKIN BiO POWER PEP MASK Moisture and Vitality; HASOL Intensive Scalp Tonic; Hanskin Bio Origin The; Hanskin Bio Prism Brightening Alpha Serum; Hanskin Real Complexion; Hanskin Real Complexion Cre Am EX; Hanskin Super Three Solu Tion Vita Brightening Sheet Mask; Hanskin Vistra toner mask pad; Hanskin Vstra toning water radiance; Hasol Anti Hair loss day tonic; Hasol Anti hair loss day tonic; Hello Care Anti-wrinkle Ampoule Mask; Hello Care Moisturizing Ampoule Mask; Hello Care Pore and Sebum Ampoule Mask; Hello Care Whitening Ampoule Mask; Hemarexin Amp; Hemarexin Liquid and Drinkable Ampoules; Hemarexin Tab; HemeNatal OB; Hesol Rim; Hesol Rim Jean-Aeck Hair tonic; Hesol Rim Tonic; Hi Potency B52 B Complex Tab; Hi Potency Balanced B-100 Complex - Tab; Hi Potency Stress B Tension With C; High Potency Vitamin B Complex + C Tab; Hill.vite; Honesi exofila; Hormodausse Plus Calc Et D Tab; Hydra Extra ConcentrateSerum; Hydra Moisture Day and Night; Hypo Vites Tab; IDENEL Light R Tox Daily; IDENEL Revitalizing Eye; INATAL Ultra; ISTINA Intense Revitalizing Serum; Iberet 500; Ideal Tone Up Glow Bb; Inatal Advance; Infa Drops Multivitamins; Infant Multivitamin Drops; Infantol Drops; Infuvite Adult Multiple Vitamins; Insur-all Vitamin Supplement; Iron Polysaccharides Folic Acid DHA; Jayjun Anti Dust Brightening Mask 01 Jayjun Anti Dust Luminous Mask; Jayjun Anti Dust Brightening Mask 02 Jayjun Anti Dust Luster Ample; Jayjun Baby Pure Shining Mask Step2 Baby Pure Shining Mask; Jayjun Collagen Skin Fit Mask Step 01 Hyaluronic Acid Essence; Jayjun Collagen Skin Fit Mask Step 02 Plant Stem Cell Mask; Jayjun Gold Snow Black Mask; Jayjun Multi Vita Tone Up Mask; Jayjun Real Water Brightening Black Mask Step2 Jayjun Vita Snow Essence; Jayjun Real Water Brightening Black Mask Step3 Real Water Brightening Black Mask; Kanga Sport Vitamins B & C Plus Minerals; Kanga-B Vitamin B Group + C; Kanga-V Multivitamins & Minerals; Kanga-kid Multi-vitamin & Mineral; Kenwood Liquid Supplement; Kid's Choice Children's Chewable Vitamins - Tab; Kids Stuff Tablets; Kids Stuff With Iron Tablets; Kimchi Vitamin chewable multivitamin; L.G.I.T.; Lancell hair loss prevention hair grower clean formula; Lancell hair loss prevention hair grower tonic; Leritone Junior; Limulus Bio Cellulose Mask; Limulus Deep Sea Moisture; Limulus The 1 and Only; Lip And Hand Camellia; Lip And Hand Shea Butter; Lip And Hand Wild Rose; Liqui B Complex; Liqui B Complex Plus; Liqui Infant Vitamins; Liqui Vita; Liquid B Complex 50; Livron Plus Ampoule; Livron Plus Tab; Low Potency B Complex Tab; Lysamine Diet Supp Amp-tab; M.V.I. 12; M.V.I. Paediatric; M.V.I. Pediatric; MD CELL Scalp; MD CELL Solution; MIRACLETOX Time Rewind Advanced Essential Toner; MIRACLETOX Time Rewind Advanced Feel; MIRACLETOX Time Rewind Advanced Lifting Ampoule; MIRACLETOX Time Rewind Advanced Lifting Ampoule 40mL; MIRACLETOX Time Rewind Advanced Mask; MIRACLETOX Time Rewind Advanced Meso Tox; MIRACLETOX Time Rewind Advanced TOX Ampoule; MISSHA Time Revolution Immortal Youth Blue Essence; MISSHA Time Revolution Night Repair Science Activator Ampoule; MISSHA Time Revolution The First Treatment Essence Intensive; MIZON ENJOY VITAL UP TIME Whitening Mask; MU LAB TURN AROUND 2W Refresh Ex; MULBIT Aqua Mask Pack; MULBIT Collagen Mask Pack; MULBIT Donkey Milk Mask; MULBIT Donkey Milk Moisturizing; MULBIT Firming Mask Pack; MULBIT Hydro Special Ample; Madeca; Madeca Derma Mask; Madeca Derma Mask II; Madeca Derma Ultra Moisture Hydroge l Mask; Maltlevol 12 Liq; Maltlevol Liq; Manefit Beauty Planner Lily Brightening Eye Mask; Manefit Beauty Planner Lily Whitening Brightening Mask; Manefit Beauty Planner Lily Whitening Eye Patch; Manefit Bling Bling Whitening Platinum Hydrogel Mask; Manefit Bling Bling Wrinkle Gold Hydro Gel Mask; Mari Huana Real Natural Sparkle Essence; Mari Huana real nature hemp seed; Maxclinic Deep and Deeper Meso Change Ampoule; Maxclinic Miraclinic Contour Ing Object; Maxi 10 Tab; Maxi 6 Liq; Medi All 4 Cleanser; Medi All 4 Cleanser (NIACINAMIDE); Medi Hydro DP B Tox Ampoule; Medi Hydro DP BB Cream; Medi Hydro DP Cream; Medi Hydro DP Emulsion; Medi Hydro DP Stem C Ampoule; Medi Hydro DP Toner; Medi Hydro DP Vita C Ampoule; Mega 13 Multivitamin Formula; Megavites Tab; Meplex T 750; Metacinamide Tab; Miesoo Perfect Pure Seed; Miesoo Perfect Pure Seed Cycling Ampoule; Miesoo Perfect Pure Seed Essence; Miesoo Perfect Pure Seed Toner; Min-chex Cap; Mineral Homme White; Mineral Homme White Toner; Mini-B Tab; Missha Time Revolution Night Repair New Science Activator Ampoule Mask; Moistie Cell Plus; Moistie Fill Plus; Moistie Pure Essence; Moistie Tok Plus; Mor-vites Tab; Mulbit Me Firming Sleeping Pack; Mulbit Medist; Multi #2; Multi - N.T.O.x Formula - Tab; Multi 12 Injection; Multi B; Multi Enfants Tab; Multi Nt-OX; Multi Rol; Multi Vita 10 Sleeping Pack; Multi Vitamin & Minerals; Multi Vitamin - Mineral; Multi Vitamin Drops with Fluoride; Multi Vitamin Drops with Fluoride and Iron; Multi Vitamin Drops with Fluoride with Iron; Multi Vitamin Infusion; Multi Vitamin Plus Iron; Multi Vitamin and Fluoride; Multi Vitamin with Fluoride; Multi Vitamin, Iron and Fluoride; Multi Vitamins & Minerals; Multi Vite Liq Adult; Multi Vite Liq Junior; Multi-11; Multi-12 Pediatric; Multi-12/k1 Pediatric; Multi-Vit with Fluoride; Multi-Vit with Fluoride and Iron; Multi-Vitamin Drops with Fluoride and Iron; Multi-Vitamin Fluoride; Multi-Vitamin With Fluoride; Multi-Vitamin with Fluoride; Multi-vitamin Dietary Supplement; Multi-vitamines Enfants Comprime; Multi-vitamins; Multi-vitamins With Minerals; MultiVitamin Drops with Fluoride and Iron; Multiple Vit Plus Iron Tab; Multiple Vitamin Plus Minerals Tab; Multiple Vitamin Tab; Multiple Vitamins; Multiple Vitamins & Minerals Tablets; Multiple Vitamins Plus Iron Tab; Multiple Vitamins Plus Iron for Women; Multiple Vitamins Tab; Multiple Vitamins W Minerals Tab; Multiple Vitamins With Iron; Multiple Vitamins With Minerals Tablets; Multiple Vitamins and Minerals Capsules; Multiple Vitamins and Minerals Tab; Multisol; Multivit Et Fer Ampoules Et Comprimes; Multivit-liq; Multivitamin; Multivitamin Drops with Fluoride; Multivitamin with Fluoride; Multivitamines; Multivitamines Et Mineraux; Multivitamines Et Mineraux Junior Regulier; Multivitamines Et Mineraux Reguliers / Regular Multivitamins and Minerals; Multivitamines Plus Fer Pour Enfants (chewable Tablets); Multivitamines Pour Enfants (chewable Tablets); Multivitamins W Iron; Multivitamins W Minerals Extra Strength; Multivitamins and Minerals - Complete; Multivitamins and Multiminerals Formula Regular Tablet; Multivitamins for Children; Mvc; Mycellcare All in One Serum; Mynephrocaps Dialysis/stress Vitamin Supplement; N.E.U. Complex; NDM SCALP Tonic; NEOGEN DERMALOGY Real Fresh Foam Cereal; NEOGEN DERMALOGY Real Fresh Foam Cranberry; NEOGEN DERMALOGY Real Fresh Foam Green Tea; NataFort; Natavite; Natural Friend White Day Soft Cream; Natural Sun AQ Total Anti-aging Essence Sun; Naturalth Goat Milk Premium Tone Up; Ndm Scalp; Neo Bex Elixir; Neo Vites Tab; Neo-bex; Neo-bex Injectable; Neo-vites & Minerals Tab; Neogen Agecure 3d Lifting Compression Span Tex Mask; Neogen Agecure 3d Lifting Wrinkle Neck Mask; Neogen Agecure One Minute Wrinkle Rx; Neogen Code 9 Black Volume; Neogen Code9 Gold Black Caviar Essence; Neogen Code9 Lemon Green Caviar Essence; Neogen Dermalogy H2 Dermadeca Serum; Neogen Dermalogy Pink Cactus Liftmax Knit Mask; Neogen Dermalogy White Truffle Hydramax Knit Mask; Neogen Dermalogy White Truffle Serum In Oi L Drop; New Premium Notamo; New Premium Notamo Tonic; Niaacinamide Azelaic AC TURMER FA B6 Zinc Ox Copper; Niacex B6; Niacin-niacinamide Tab; Niacinamide; Niacinamide 100 Mg Tablets; Niacinamide 100mg; Niacinamide 100mg USP - Tab; Niacinamide 250mg With 50mg C; Niacinamide 250mg With Vitamin C; Niacinamide 500 Tab 500mg; Niacinamide 500 mg; Niacinamide 500mg; Niacinamide 500mg - Tab; Niacinamide Ctr Srt 500mg; Niacinamide Inj 100mg/ml; Niacinamide Tab 100mg; Niacinamide Tab 100mg Yeast Free; Niacinamide Tab 500mg; Niacinamide-B6 Cap; Niacinamide-S Tab 50mg; Nicomide; Nicotamine Tab 500mg; Nioxin Recharging Complex; Niveola P.H.c 3d Festival Mask Pack; Niveola White Tiger 3d Animal Mask Pack; Notamo Hair Tonic; Nrg Plus Liq; Nutrilite Double X; Nutrol-B-complex; Onccor; One A Day Advance Fem; One A Day Multiple Vit W Minerals; One A Day Tab; Orifer F; Orti B; Ouhi Cell Power No 1 Essence; P.R.O. Complex; P1P Chitosan V-mask; P1P Magic Whitening Antiaging; P1P Mela Care; PHS Hair Science Fem Hair Loss Tonic; PHS Hair Science Hom Hair Loss Tonic; PHS Hair Science Pro Hair Loss Tonic; PM Caps; PNV Ferrous Fumarate Docusate Folic Acid; PNV Prenatal Plus Multivitamin; PNV Prenatal Vitamin; PNV Prenatal Vitamin Plus Vitamin A; PNV-First; PNV-Select; PREMIUM TS Talmostop; PREMIUM TS Talmostop Rich; Pandas Dream Magic; Paramettes Chewable Multivitamins Plus Iron; Paramettes Chewable Multivits With Iron Tab; Paramettes Multivits Plus Iron Tab (teens); Paramettes Syrup; Pediatric Infuvite Multiple Vitamins; Pediatric Infuvite Multiple Vitamins for Infusion; Peptide Up Volume Essence; Peptide Volume Essence Premium; Permathene-12  -  Caplet; Phosthenine Vitamines Et Fer (ampoules Buvable); Phytofortis + Calcium A-D; Phytopecia Hair Boosting; Phytopecia Hair Tonic; Phytoplex B Liq; Phytopure; Plalab Placenta Ample Essence; Plalab Placenta Mask; Plalab Placenta R-20; Plalab Placenta Skin Booster; Pml Crono; Poly-VI-sol Drops; Polymine Avec Zinc Et Cuivre; Potassium Plus Vit B Complex; PreNatal 19; PrePLUS; PreTAB; Prefera OB plus DHA; PreferaOB; PreferaOB ONE; PreferaOB One; PreferaOB plus DHA; Pregvit; Pregvit Folic 4; Pregvit Folic 5; Premel; Premium Dr. Althea Power Whitening Glutathione Mask; Premium Dr. Althea Water Glow Skin Renewal Hydrogel Mask; Premium TS; Prenatal Plus; Prenatal Plus Iron; Prenatal Vitamins Plus; Prenate Elite; Prenate Star; Prestige Caviar Full Intensive Vitality Toner; Prestige Caviar Super Aqua Serum; Prestige Jeju Snail; Prestige Jeju Snail Essence; Prestige Jeju Snail Toner; Prestige Snail Repairing; Prestige Snail Repairing Ampoule; Prestige Snail Repairing Booster; Prevital Tab; Primerose Double Effect Eye; Primerose Egf; Primerose Snail Hydro Essence; Primerose White Milky Cb; Propolis 27 Cover Cushion; Propolis 50 Volume Mist; Propolis 80; Propolis 80 Sleeping Pack; Propolis Softening Toner; Propolis and Rose Callus Mask; Protective Base Sun for Dry Skin; Protective Base Sun for Oily Skin; Pure C Serum; Pure Vita White; Pure White Brightening; Pure White Brightening Essence; Pure White Brightening Toner; PureVit DualFe Plus; Q.T. Vitamin and Mineral Drink Mix; Queen Purecell Whitening 3-step Mask; Queens Rose Recovery; Queens Rose Recovery Eye; Queens Rose Recovery Toner; RUBELLI Black Pearl Mask; ReEn Hairloss Clinic Jahajin Shampoo for Sensitive Scalp; Rep Nutrinature Ultra Nourishing; Replavite; Revit Plus Cap; Revit Tab; Revital Perfecting Dual Ampoule; Revitex Ampoules Et Comprimes; Revival 1 Tab; Right Choice A.M. Multi Formula - Caplet; Rose Oasis 50 Moisture Bomb; Rose Oasis 70 Cream; Rose Oasis 80 Ampoule; Rubelli Water Glow Essence; Ruby Cell 4u; Ruby Cell 4u Ampoule; Ruby Cell 4u Ampoule Premium; Saccharomyces The First; Saccharomyces The First Eye; Sallys Box Secret Garden Lemon Oil Ampoule Mask; Scalp Scaling; Se-Natal 19; Se-Natal 19 Chewable; Se-Natal One; Se-Tan PLUS; Secret Key Thanakha Mild SunCream SPF47 PA PLUS PLUS PLUS; Sheza Gusl Firming Mask Pack; Shieldlife Whitening Ion Mask; Sibergin B - Cap; SimmyungSaengMoSu Hair tonic; Siseundeusi Luminant; Siseundeusi Luminant Essence; Siseundeusi Luminant Mask Pack Step2(whitening); Siseundeusi Luminant Skin Toner; Skederm Ultimate Eye; Skinfood Miracle Food 10 Solu Tion; Skinfood Miracle Food 10 Solu Tion 1ml; Skinfood Real Tea Ge L Mask Chamomile; Skinfood Real Tea Ge L Mask Lavender; Skinfood Real Tea Ge L Mask Rose; Snail Essential EX Wrinkle Essence; Snail Gold Hydro Lip; Snail Skin Booster; Snail Solu Tion Skin Booster; Snail Solu Tion Wrinkle Up Spot; Snow White; Snow White Cleansing Foam; Snow White Essence; Snow White Milky; Snow White Milky Pack; Snow White Spot; Sollume Esthe Repair Serum; Somarexin and C 1000; Somavit Brand Vitamins and Minerals Complex; Sonatural Centella Facial Thin Mask; Sopalamine 3b Plus; Sopalamine/3b Plus C; Spectrum 2 Cap; Stem Cell Whitening Serum; Stress B Capsules With Vitamin C; Stress B Complex With C, E & Iron; Stress B With 1000 Mg Vitamin C; Stress B&c Tab; Stress Complex 600 Avec Vit E Cuivre Zinc; Stress Ctr Srt; Stress Formula; Stress Formula + Iron; Stress Formula B-comp + 500mg Vit C Tab; Stress Formula Multivitamin Tablets USP; Stress Formula Tab; Stress Formula Vit B With C Complex; Stress Forte Plus Lipotropic Factors; Stress Tab; Stress Tab With Iron and Vitamin E; Stress Tab With Zinc, Copper and Vitamin E; Stress Tablets; Stress Vitamin B With C Complex Tablets; Stressmates; Strovite One Caplets; Sun-rype Vitaburst; Super Amazing Revolution For Eye; Super Amazing Revolution For Face; Super B Compound W 500mg Vit C; Super Charged Energy; Super Kids Chewable Multivitamin Multimineral (chewable Tablets); Super Pantoplex; Super Stress Capsules; Super-pote Vitamin Supplement; Supplement De Multivitamines Infusion Arome Fruits Rouges; Supravite 10ml Ampoule; Supravite Bouteille 250ml; Supravite C 1000; Supravite Pour Enfants; Supravite Stress Avec Vit E; Supravite Stress Avec Vit E Cuivre Et Zinc; Supravite Stress Avec Vit E Et Fer; Surbex 500 Filmtab; Surbex-500 With Iron; Surbex-500 With Zinc; Swical-energy-2; T.R.I. B-plex Src; TAMHADA Synergy Whitening Mask; TS (Talmostop); TS (Talmostop) Hair Tonic; TS (Talmostop) Talhwan; Tandem OB; Tandem Plus; Tangerine Bright Sleeping Mask; Tar-end; Tender Age Multi Vitamins; Thanks 12 Rich Caviar Mask; Thanks 12 Rich Caviar Mist; The All Medicare V PLA Synergy Whitening Mask; The Hayan Cherry Blossom Brightening Essence; The Oozoo Face Energy Shot Premium Black Ampoule1; The Oozoo Face Energy Shot Premium Black Ampoule2; The Oozoo Face Energy Shot Premium Black Mask; Therapytion Natural Deep Clean; Therapytion Natural Relaxing; Therapytion Nokmosu Neutral and oily Hair; Therapytion Nokmosu Sensitive and Dry Hair; Time Release B 100 Compound  -  Tablet; Timed Release B Complex 100 Srt; Timed Release B-complex 100; Timed Release B-complex 50; Tini-cal Ampoules; Toni Com Liq; Tonicol Et A-D-C Ampoules/comprimes; Tonimol Cap Liq; Tonymoly Naturalth Goat Milk Whitening Essence; Tonymoly Naturalth Goat Milk Whitening Toner; Tonymoly Pandas Dream White Hand; TriAdvance; Tricare Prenatal; Trinatal GT; Twin Ultra Liquid Fruit Punch Flavor; Twin Ultra Liquid Grape Flavor; Twin Ultra Liquid Lemon-lime Flavor; Twin Ultra Liquid Orange Flavor; Ultimate Nourishing Rice Overnight Spa Mask; UltimateCare ONE NF; Ultra Enerforce; Ultra Hr; Ultra Waterfall Cream; Ultra Whitening; Ultra Whitening Ample; Ultra Whitening First Essence; Uniwell Natural; Uniwell Natural Toner; Usana Megavitamin Tablets - Tab; V V Vitalizing Eye; V V Vitalizing Serum; VP-HEME One; VP-heme OB; Vasula Tab; Vege 1 Daily Tab; Viamon Ampoules Et Comprimes; Vigo Multivitamins Drops/lozenge; Vimeral Tab; Virt-Caps; Virt-Pn; Virt-Vite Plus; Vit B Complex Ctr; Vit B Complex Plus Vit C 550mg; Vit-HA Multi Vitamin and Zinc Supplement; Vita B + C 500 Tab; Vita C 35 Tone Up Ampule; Vita Volu 101 Essence; Vita Volu Volume Booster; Vita-B; Vita-B-75 Cap; Vita-acinamid Cap 500mg; Vita-worth B-complex Tablets; Vitabanks Vitamin Tab; Vitabrid C12 FACE 4g; Vitabrid C12 FACE BRIGHTENING; Vitabrid C12 FACE Pow der 2g; Vitabrid C12 SENSITIVE Spot Pow der Serum; Vitaday Tab; Vitafant; Vitafer - Liq; Vitaflex Dietary Suplement; Vitafol Ultra; Vital Be-100; Vitalife  -  Capsule; Vitamin B + C Cap; Vitamin B Complex; Vitamin B Complex + C 300mg Cap; Vitamin B Complex + C 600mg Tab; Vitamin B Complex 100 Tab; Vitamin B Complex 50; Vitamin B Complex Plus 300mg Vitamin C; Vitamin B Complex Plus C 300mg Timed Release; Vitamin B Complex Suppl; Vitamin B Complex W C 300mg Tab; Vitamin B Complex W C Tab; Vitamin B Compound W C Tab 500mg; Vitamin B Compound W Vit C 250mg Tab; Vitamin B Compound With Vitamin C Fortis Capsule Dtc; Vitamin B Cpd W Vit C Tab; Vitamin B Tablets; Vitamin B3 Tab 500mg; Vitamin and Mineral Supplement - Liq; Vitamine 110 Liq; Vitamine Du Groupe B Plus Fer - Liq; Vitamines Et Mineraux; Vitamines Et Mineraux Comprimes; Vitamines Et Mineraux Enfants 970; Vitamines Pour Bebes Et Enfants; Vitaplex; Vitogen B Compound W C Fortis Capsules; Vitogen B Stress C Vit E Zinc & Cop; Vitogen B Stress C600; Vitogen Multiple Vitamins Tab; Vitogen Multiple Vitamins W Iron; Vitreat Chewable Vitamin Tab; Vitreat Chewable Vitamins Plus Iron; Volcanic Grape Callus Mask; Volcanic Homme; Volcanic Homme All in One Essence; Volcanic Homme Toner; Volcanic Pore Eraser Ampoule; Vp-zel; W Lab SNAIL GREENTEA; W Lab SNAIL GREENTEA ESSENCE; Wellage Deep Layer Fresh Moisture; Wellage Fresh Water Essence Mist; White Lie; White Mineral Homme Fluid; White Mineral Homme Fo am Cleanser; White Mineral Homme Toner; White Vita First Essence; White Vita Floral; White Vita Floral Essence Brightening; White Vita Floral Toner; Whitening ConcentrateTreatment Mask; Wisderma Most Moist Bio Ampoule; Women's Formula; Yenaan Jinaek; Yenaan Jinaek Essence; Yenaan Jinaek Eye; Zoo Chews; bdr Re-action tonic professional multi active booster; bdr Re-charge contour push up serum high-potential moisturizer; bdr Re-construct enriched nourishing formula; denovo 3 H; it Radiant Brightening Toner; rep Nutrinature Ultra All in One Multitem; rep Nutrinature Ultra Moist Ge l; rep Nutrinature Ultra Moist Gel Oil; rep Nutrinature Ultra Nourishing Cream; rep Nutrinature Ultra-All-Night Moisture Relief Mask

>  <SALTS>  (1) 
Niacinamide hydrochloride

>  <SECONDARY_ACCESSION_NUMBERS>  (1) 
EXPT02307

>  <SMILES>  (1) 
NC(=O)C1=CC=CN=C1

>  <SYNONYMS>  (1) 
Niacinamide; Nicotinic amide

$$$$
