Resveratrol
     RDKit          2D

 29 30  0  0  0  0  0  0  0  0999 V2000
    1.4289   -1.6500    0.0000 O   0  0  0  0  0  0  0  0  0  0  0  0
    1.4289   -2.4750    0.0000 C   0  0  0  0  0  0  0  0  0  0  0  0
    2.1434   -2.8875    0.0000 C   0  0  0  0  0  0  0  0  0  0  0  0
    2.1434   -3.7125    0.0000 C   0  0  0  0  0  0  0  0  0  0  0  0
    1.4289   -4.1250    0.0000 C   0  0  0  0  0  0  0  0  0  0  0  0
    1.4289   -4.9500    0.0000 C   0  0  0  0  0  0  0  0  0  0  0  0
    2.1434   -5.3625    0.0000 C   0  0  0  0  0  0  0  0  0  0  0  0
    2.1434   -6.1875    0.0000 C   0  0  0  0  0  0  0  0  0  0  0  0
    2.8579   -6.6000    0.0000 C   0  0  0  0  0  0  0  0  0  0  0  0
    2.8579   -7.4250    0.0000 C   0  0  0  0  0  0  0  0  0  0  0  0
    3.5724   -7.8375    0.0000 O   0  0  0  0  0  0  0  0  0  0  0  0
    2.1434   -7.8375    0.0000 C   0  0  0  0  0  0  0  0  0  0  0  0
    1.4289   -7.4250    0.0000 C   0  0  0  0  0  0  0  0  0  0  0  0
    0.7145   -7.8375    0.0000 O   0  0  0  0  0  0  0  0  0  0  0  0
    1.4289   -6.6000    0.0000 C   0  0  0  0  0  0  0  0  0  0  0  0
    0.7145   -3.7125    0.0000 C   0  0  0  0  0  0  0  0  0  0  0  0
    0.7145   -2.8875    0.0000 C   0  0  0  0  0  0  0  0  0  0  0  0
    0.0000    0.0000    0.0000 H   0  0  0  0  0  0  0  0  0  0  0  0
    0.0000    0.0000    0.0000 H   0  0  0  0  0  0  0  0  0  0  0  0
    0.0000    0.0000    0.0000 H   0  0  0  0  0  0  0  0  0  0  0  0
    0.0000    0.0000    0.0000 H   0  0  0  0  0  0  0  0  0  0  0  0
    0.0000    0.0000    0.0000 H   0  0  0  0  0  0  0  0  0  0  0  0
    0.0000    0.0000    0.0000 H   0  0  0  0  0  0  0  0  0  0  0  0
    0.0000    0.0000    0.0000 H   0  0  0  0  0  0  0  0  0  0  0  0
    0.0000    0.0000    0.0000 H   0  0  0  0  0  0  0  0  0  0  0  0
    0.0000    0.0000    0.0000 H   0  0  0  0  0  0  0  0  0  0  0  0
    0.0000    0.0000    0.0000 H   0  0  0  0  0  0  0  0  0  0  0  0
    0.0000    0.0000    0.0000 H   0  0  0  0  0  0  0  0  0  0  0  0
    0.0000    0.0000    0.0000 H   0  0  0  0  0  0  0  0  0  0  0  0
  1  2  1  0
  2  3  2  0
  3  4  1  0
  4  5  2  0
  5  6  1  0
  6  7  2  0
  7  8  1  0
  8  9  2  0
  9 10  1  0
 10 11  1  0
 10 12  2  0
 12 13  1  0
 13 14  1  0
 13 15  2  0
  8 15  1  0
  5 16  1  0
 16 17  2  0
  2 17  1  0
  1 18  1  0
  3 19  1  0
  4 20  1  0
  6 21  1  0
  7 22  1  0
  9 23  1  0
 11 24  1  0
 12 25  1  0
 14 26  1  0
 15 27  1  0
 16 28  1  0
 17 29  1  0
M  END
>  <ALOGPS_LOGP>  (1) 
2.57

>  <ALOGPS_LOGS>  (1) 
-3.52

>  <ALOGPS_SOLUBILITY>  (1) 
6.88e-02 g/l

>  <DATABASE_ID>  (1) 
DB02709

>  <DATABASE_NAME>  (1) 
drugbank

>  <DRUGBANK_ID>  (1) 
DB02709

>  <DRUG_GROUPS>  (1) 
approved; experimental; investigational

>  <EXACT_MASS>  (1) 
228.078644246

>  <FORMULA>  (1) 
C14H12O3

>  <GENERIC_NAME>  (1) 
Resveratrol

>  <INCHI_IDENTIFIER>  (1) 
InChI=1S/C14H12O3/c15-12-5-3-10(4-6-12)1-2-11-7-13(16)9-14(17)8-11/h1-9,15-17H/b2-1+

>  <INCHI_KEY>  (1) 
LUKBXSAWLPMMSZ-OWOJBTEDSA-N

>  <JCHEM_ACCEPTOR_COUNT>  (1) 
3

>  <JCHEM_ATOM_COUNT>  (1) 
29

>  <JCHEM_AVERAGE_POLARIZABILITY>  (1) 
24.551069139354432

>  <JCHEM_BIOAVAILABILITY>  (1) 
1

>  <JCHEM_DONOR_COUNT>  (1) 
3

>  <JCHEM_FORMAL_CHARGE>  (1) 
0

>  <JCHEM_GHOSE_FILTER>  (1) 
1

>  <JCHEM_IUPAC>  (1) 
5-[(E)-2-(4-hydroxyphenyl)ethenyl]benzene-1,3-diol

>  <JCHEM_LOGP>  (1) 
3.4023908863333325

>  <JCHEM_MDDR_LIKE_RULE>  (1) 
0

>  <JCHEM_NUMBER_OF_RINGS>  (1) 
2

>  <JCHEM_PHYSIOLOGICAL_CHARGE>  (1) 
0

>  <JCHEM_PKA>  (1) 
9.12809455952825

>  <JCHEM_PKA_STRONGEST_ACIDIC>  (1) 
8.493489164415605

>  <JCHEM_PKA_STRONGEST_BASIC>  (1) 
-6.178025720766969

>  <JCHEM_POLAR_SURFACE_AREA>  (1) 
60.69

>  <JCHEM_REFRACTIVITY>  (1) 
67.4555

>  <JCHEM_ROTATABLE_BOND_COUNT>  (1) 
2

>  <JCHEM_RULE_OF_FIVE>  (1) 
1

>  <JCHEM_TRADITIONAL_IUPAC>  (1) 
resveratrol

>  <JCHEM_VEBER_RULE>  (1) 
0

>  <MOLECULAR_WEIGHT>  (1) 
228.247

>  <PRODUCTS>  (1) 
Co-Veratrol

>  <SECONDARY_ACCESSION_NUMBERS>  (1) 
EXPT02968

>  <SMILES>  (1) 
OC1=CC=C(\C=C\C2=CC(O)=CC(O)=C2)C=C1

>  <SYNONYMS>  (1) 
(E)-5-(2-(4-hydroxyphenyl)ethenyl)-1,3-benzenediol(E)-5-(2-(4-hydroxyphenyl)ethenyl)-1,3-benzenediol; (E)-resveratrol; 3,4',5-trihydroxy-trans-stilbene; 3,4',5-trihydroxystilbene; 3,5,4'-trihydroxystilbene; 5-[(E)-2-(4-hydroxyphenyl)vinyl]benzene-1,3-diol; trans-resveratrol

$$$$
