
     RDKit          2D

 70 73  0  0  1  0  0  0  0  0999 V2000
   12.1370   -9.5610    0.0000 C   0  0  0  0  0  0  0  0  0  0  0  0
   11.4226   -9.9735    0.0000 C   0  0  0  0  0  0  0  0  0  0  0  0
   11.4226  -10.7986    0.0000 C   0  0  0  0  0  0  0  0  0  0  0  0
   12.1370  -11.2111    0.0000 C   0  0  0  0  0  0  0  0  0  0  0  0
   12.8515  -10.7986    0.0000 C   0  0  0  0  0  0  0  0  0  0  0  0
   12.8515   -9.9735    0.0000 C   0  0  0  0  0  0  0  0  0  0  0  0
   13.5660   -9.5610    0.0000 C   0  0  0  0  0  0  0  0  0  0  0  0
   13.5660  -11.2111    0.0000 C   0  0  0  0  0  0  0  0  0  0  0  0
   14.2804  -10.7986    0.0000 C   0  0  0  0  0  0  0  0  0  0  0  0
   14.2804   -9.9735    0.0000 C   0  0  0  0  0  0  0  0  0  0  0  0
   14.2804   -8.3235    0.0000 C   0  0  0  0  0  0  0  0  0  0  0  0
   13.5660   -8.7360    0.0000 C   0  0  0  0  0  0  0  0  0  0  0  0
   14.9949   -9.5610    0.0000 C   0  0  0  0  0  0  0  0  0  0  0  0
   14.9949   -8.7360    0.0000 C   0  0  0  0  0  0  0  0  0  0  0  0
   15.7795   -8.4811    0.0000 C   0  0  0  0  0  0  0  0  0  0  0  0
   15.7795   -9.8159    0.0000 C   0  0  0  0  0  0  0  0  0  0  0  0
   16.2644   -9.1485    0.0000 C   0  0  0  0  0  0  0  0  0  0  0  0
   15.7795   -7.6561    0.0000 C   0  0  0  0  0  0  0  0  0  0  0  0
   16.4940   -7.2436    0.0000 C   0  0  0  0  0  0  0  0  0  0  0  0
   17.2085   -7.6561    0.0000 C   0  0  0  0  0  0  0  0  0  0  0  0
   17.9229   -7.2436    0.0000 C   0  0  0  0  0  0  0  0  0  0  0  0
   17.9229   -6.4186    0.0000 O   0  0  0  0  0  0  0  0  0  0  0  0
   18.6374   -7.6561    0.0000 C   0  0  0  0  0  0  0  0  0  0  0  0
   19.0499   -8.3705    0.0000 C   0  0  0  0  0  0  0  0  0  0  0  0
   19.4624   -7.6561    0.0000 C   0  0  0  0  0  0  0  0  0  0  0  0
   10.7081  -11.2111    0.0000 O   0  0  0  0  0  0  0  0  0  0  0  0
   14.9949   -7.9110    0.0000 C   0  0  0  0  0  0  0  0  0  0  0  0
   12.1370   -8.7360    0.0000 O   0  0  0  0  0  0  0  0  0  0  0  0
   15.0651   -7.2436    0.0000 C   0  0  0  0  0  0  0  0  0  0  0  0
   12.8515   -9.1485    0.0000 C   0  0  0  0  0  0  0  0  0  0  0  0
    0.0000    0.0000    0.0000 H   0  0  0  0  0  0  0  0  0  0  0  0
    0.0000    0.0000    0.0000 H   0  0  0  0  0  0  0  0  0  0  0  0
    0.0000    0.0000    0.0000 H   0  0  0  0  0  0  0  0  0  0  0  0
    0.0000    0.0000    0.0000 H   0  0  0  0  0  0  0  0  0  0  0  0
    0.0000    0.0000    0.0000 H   0  0  0  0  0  0  0  0  0  0  0  0
    0.0000    0.0000    0.0000 H   0  0  0  0  0  0  0  0  0  0  0  0
    0.0000    0.0000    0.0000 H   0  0  0  0  0  0  0  0  0  0  0  0
    0.0000    0.0000    0.0000 H   0  0  0  0  0  0  0  0  0  0  0  0
    0.0000    0.0000    0.0000 H   0  0  0  0  0  0  0  0  0  0  0  0
    0.0000    0.0000    0.0000 H   0  0  0  0  0  0  0  0  0  0  0  0
    0.0000    0.0000    0.0000 H   0  0  0  0  0  0  0  0  0  0  0  0
    0.0000    0.0000    0.0000 H   0  0  0  0  0  0  0  0  0  0  0  0
    0.0000    0.0000    0.0000 H   0  0  0  0  0  0  0  0  0  0  0  0
    0.0000    0.0000    0.0000 H   0  0  0  0  0  0  0  0  0  0  0  0
    0.0000    0.0000    0.0000 H   0  0  0  0  0  0  0  0  0  0  0  0
    0.0000    0.0000    0.0000 H   0  0  0  0  0  0  0  0  0  0  0  0
    0.0000    0.0000    0.0000 H   0  0  0  0  0  0  0  0  0  0  0  0
    0.0000    0.0000    0.0000 H   0  0  0  0  0  0  0  0  0  0  0  0
    0.0000    0.0000    0.0000 H   0  0  0  0  0  0  0  0  0  0  0  0
    0.0000    0.0000    0.0000 H   0  0  0  0  0  0  0  0  0  0  0  0
    0.0000    0.0000    0.0000 H   0  0  0  0  0  0  0  0  0  0  0  0
    0.0000    0.0000    0.0000 H   0  0  0  0  0  0  0  0  0  0  0  0
    0.0000    0.0000    0.0000 H   0  0  0  0  0  0  0  0  0  0  0  0
    0.0000    0.0000    0.0000 H   0  0  0  0  0  0  0  0  0  0  0  0
    0.0000    0.0000    0.0000 H   0  0  0  0  0  0  0  0  0  0  0  0
    0.0000    0.0000    0.0000 H   0  0  0  0  0  0  0  0  0  0  0  0
    0.0000    0.0000    0.0000 H   0  0  0  0  0  0  0  0  0  0  0  0
    0.0000    0.0000    0.0000 H   0  0  0  0  0  0  0  0  0  0  0  0
    0.0000    0.0000    0.0000 H   0  0  0  0  0  0  0  0  0  0  0  0
    0.0000    0.0000    0.0000 H   0  0  0  0  0  0  0  0  0  0  0  0
    0.0000    0.0000    0.0000 H   0  0  0  0  0  0  0  0  0  0  0  0
    0.0000    0.0000    0.0000 H   0  0  0  0  0  0  0  0  0  0  0  0
    0.0000    0.0000    0.0000 H   0  0  0  0  0  0  0  0  0  0  0  0
    0.0000    0.0000    0.0000 H   0  0  0  0  0  0  0  0  0  0  0  0
    0.0000    0.0000    0.0000 H   0  0  0  0  0  0  0  0  0  0  0  0
    0.0000    0.0000    0.0000 H   0  0  0  0  0  0  0  0  0  0  0  0
    0.0000    0.0000    0.0000 H   0  0  0  0  0  0  0  0  0  0  0  0
    0.0000    0.0000    0.0000 H   0  0  0  0  0  0  0  0  0  0  0  0
    0.0000    0.0000    0.0000 H   0  0  0  0  0  0  0  0  0  0  0  0
    0.0000    0.0000    0.0000 H   0  0  0  0  0  0  0  0  0  0  0  0
  1  2  1  0
  2  3  1  0
  3  4  1  0
  4  5  1  0
  1  6  1  0
  6  5  1  0
  5  8  2  0
  8  9  1  0
  9 10  2  0
 10 13  1  0
  7 10  1  0
 12  7  1  0
 11 12  1  0
 11 14  1  0
 15 14  1  0
 14 13  1  0
 13 16  1  0
 16 17  1  0
 15 17  1  0
 15 18  1  0
 18 19  1  1
 19 20  2  0
 21 20  1  1
 21 22  1  0
 21 23  1  0
 23 24  1  0
 23 25  1  0
 25 24  1  0
  3 26  1  1
 14 27  1  1
  1 28  1  6
 18 29  1  0
  6 30  2  3
  1 31  1  0
  2 32  1  0
  2 33  1  0
  3 34  1  0
  4 35  1  0
  4 36  1  0
  7 37  1  0
  7 38  1  0
  8 39  1  0
  9 40  1  0
 11 41  1  0
 11 42  1  0
 12 43  1  0
 12 44  1  0
 13 45  1  6
 15 46  1  6
 16 47  1  0
 16 48  1  0
 17 49  1  0
 17 50  1  0
 18 51  1  0
 19 52  1  0
 20 53  1  0
 21 54  1  0
 22 55  1  0
 23 56  1  0
 24 57  1  0
 24 58  1  0
 25 59  1  0
 25 60  1  0
 26 61  1  0
 27 62  1  0
 27 63  1  0
 27 64  1  0
 28 65  1  0
 29 66  1  0
 29 67  1  0
 29 68  1  0
 30 69  1  0
 30 70  1  0
M  END
>  <ALOGPS_LOGP>  (1) 
4.63

>  <ALOGPS_LOGS>  (1) 
-4.49

>  <ALOGPS_SOLUBILITY>  (1) 
1.35e-02 g/l

>  <DATABASE_ID>  (1) 
DB02300

>  <DATABASE_NAME>  (1) 
drugbank

>  <DRUGBANK_ID>  (1) 
DB02300

>  <DRUG_GROUPS>  (1) 
approved

>  <EXACT_MASS>  (1) 
412.297745146

>  <FORMULA>  (1) 
C27H40O3

>  <GENERIC_NAME>  (1) 
Calcipotriol

>  <INCHI_IDENTIFIER>  (1) 
InChI=1S/C27H40O3/c1-17(6-13-25(29)20-8-9-20)23-11-12-24-19(5-4-14-27(23,24)3)7-10-21-15-22(28)16-26(30)18(21)2/h6-7,10,13,17,20,22-26,28-30H,2,4-5,8-9,11-12,14-16H2,1,3H3/b13-6+,19-7+,21-10-/t17-,22-,23-,24+,25-,26+,27-/m1/s1

>  <INCHI_KEY>  (1) 
LWQQLNNNIPYSNX-UROSTWAQSA-N

>  <INTERNATIONAL_BRANDS>  (1) 
Daivonex

>  <JCHEM_ACCEPTOR_COUNT>  (1) 
3

>  <JCHEM_AVERAGE_POLARIZABILITY>  (1) 
49.59111678976198

>  <JCHEM_BIOAVAILABILITY>  (1) 
1

>  <JCHEM_DONOR_COUNT>  (1) 
3

>  <JCHEM_FORMAL_CHARGE>  (1) 
0

>  <JCHEM_GHOSE_FILTER>  (1) 
1

>  <JCHEM_IUPAC>  (1) 
(1R,3S,5Z)-5-{2-[(1R,3aS,4E,7aR)-1-[(2R,3E,5S)-5-cyclopropyl-5-hydroxypent-3-en-2-yl]-7a-methyl-octahydro-1H-inden-4-ylidene]ethylidene}-4-methylidenecyclohexane-1,3-diol

>  <JCHEM_LOGP>  (1) 
3.8433507853333344

>  <JCHEM_MDDR_LIKE_RULE>  (1) 
0

>  <JCHEM_NUMBER_OF_RINGS>  (1) 
4

>  <JCHEM_PHYSIOLOGICAL_CHARGE>  (1) 
0

>  <JCHEM_PKA>  (1) 
15.288747760728633

>  <JCHEM_PKA_STRONGEST_ACIDIC>  (1) 
14.392873609816359

>  <JCHEM_PKA_STRONGEST_BASIC>  (1) 
-1.5903047523657756

>  <JCHEM_POLAR_SURFACE_AREA>  (1) 
60.69

>  <JCHEM_REFRACTIVITY>  (1) 
125.44929999999998

>  <JCHEM_ROTATABLE_BOND_COUNT>  (1) 
5

>  <JCHEM_RULE_OF_FIVE>  (1) 
1

>  <JCHEM_TRADITIONAL_IUPAC>  (1) 
calcipotriol

>  <JCHEM_VEBER_RULE>  (1) 
0

>  <MOLECULAR_WEIGHT>  (1) 
412.6047

>  <PRODUCTS>  (1) 
Calcipotriene; Calcipotriene 0.005% and Betamethasone Dipropionate 0.064%; Calcipotriene and Betamethasone Dipropionate; Calcitrene; Dovobet Gel; Dovobet Ointment; Dovonex; Dovonex - Crm 50mcg/gm; Dovonex Ont 50mcg/gm; Dovonex Solution - Top 50mcg/ml; Enstilar; Sorilux; Taclonex; Taclonex Scalp

>  <SALTS>  (1) 
Calcipotriol hydrate

>  <SECONDARY_ACCESSION_NUMBERS>  (1) 
EXPT02131

>  <SMILES>  (1) 
O[C@H](\C=C\[C@@H](C)[C@@]1([H])CC[C@@]2([H])\C(CCC[C@]12C)=C\C=C1\C[C@@H](O)C[C@H](O)C1=C)C1CC1

>  <SYNONYMS>  (1) 
Calcipotriene

$$$$
