 
     RDKit          2D

 45 46  0  0  1  0  0  0  0  0999 V2000
   16.2167   -8.6591    0.0000 C   0  0  0  0  0  0  0  0  0  0  0  0
   15.6048   -9.2056    0.0000 O   0  0  0  0  0  0  0  0  0  0  0  0
   16.9042   -8.1641    0.0000 O   0  0  0  0  0  0  0  0  0  0  0  0
   16.4676   -9.4256    0.0000 C   0  0  0  0  0  0  0  0  0  0  0  0
   15.6393   -8.0713    0.0000 C   0  0  0  0  0  0  0  0  0  0  0  0
   14.8933   -9.6181    0.0000 C   0  0  0  0  0  0  0  0  0  0  0  0
   17.5677   -8.6453    0.0000 C   0  0  0  0  0  0  0  0  0  0  0  0
   17.3030   -9.4256    0.0000 C   0  0  0  0  0  0  0  0  0  0  0  0
   15.9830  -10.0959    0.0000 O   0  0  0  0  0  0  0  0  0  0  0  0
   14.8864   -8.4149    0.0000 O   0  0  0  0  0  0  0  0  0  0  0  0
   14.1715   -9.2056    0.0000 O   0  0  0  0  0  0  0  0  0  0  0  0
   14.8933  -10.4431    0.0000 C   0  0  0  0  0  0  0  0  0  0  0  0
   18.3548   -8.3978    0.0000 C   0  0  0  0  0  0  0  0  0  0  0  0
   17.7809  -10.0994    0.0000 O   0  0  0  0  0  0  0  0  0  0  0  0
   13.4633   -9.6216    0.0000 C   0  0  0  0  0  0  0  0  0  0  0  0
   14.1715  -10.8556    0.0000 C   0  0  0  0  0  0  0  0  0  0  0  0
   15.6014  -10.8556    0.0000 O   0  0  0  0  0  0  0  0  0  0  0  0
   18.8498   -9.0612    0.0000 O   0  0  0  0  0  0  0  0  0  0  0  0
   13.4633  -10.4431    0.0000 C   0  0  0  0  0  0  0  0  0  0  0  0
   12.7484   -9.2056    0.0000 C   0  0  0  0  0  0  0  0  0  0  0  0
   14.1715  -11.6806    0.0000 O   0  0  0  0  0  0  0  0  0  0  0  0
   12.7484  -10.8556    0.0000 O   0  0  0  0  0  0  0  0  0  0  0  0
   12.1192   -9.7419    0.0000 O   0  0  0  0  0  0  0  0  0  0  0  0
    0.0000    0.0000    0.0000 H   0  0  0  0  0  0  0  0  0  0  0  0
    0.0000    0.0000    0.0000 H   0  0  0  0  0  0  0  0  0  0  0  0
    0.0000    0.0000    0.0000 H   0  0  0  0  0  0  0  0  0  0  0  0
    0.0000    0.0000    0.0000 H   0  0  0  0  0  0  0  0  0  0  0  0
    0.0000    0.0000    0.0000 H   0  0  0  0  0  0  0  0  0  0  0  0
    0.0000    0.0000    0.0000 H   0  0  0  0  0  0  0  0  0  0  0  0
    0.0000    0.0000    0.0000 H   0  0  0  0  0  0  0  0  0  0  0  0
    0.0000    0.0000    0.0000 H   0  0  0  0  0  0  0  0  0  0  0  0
    0.0000    0.0000    0.0000 H   0  0  0  0  0  0  0  0  0  0  0  0
    0.0000    0.0000    0.0000 H   0  0  0  0  0  0  0  0  0  0  0  0
    0.0000    0.0000    0.0000 H   0  0  0  0  0  0  0  0  0  0  0  0
    0.0000    0.0000    0.0000 H   0  0  0  0  0  0  0  0  0  0  0  0
    0.0000    0.0000    0.0000 H   0  0  0  0  0  0  0  0  0  0  0  0
    0.0000    0.0000    0.0000 H   0  0  0  0  0  0  0  0  0  0  0  0
    0.0000    0.0000    0.0000 H   0  0  0  0  0  0  0  0  0  0  0  0
    0.0000    0.0000    0.0000 H   0  0  0  0  0  0  0  0  0  0  0  0
    0.0000    0.0000    0.0000 H   0  0  0  0  0  0  0  0  0  0  0  0
    0.0000    0.0000    0.0000 H   0  0  0  0  0  0  0  0  0  0  0  0
    0.0000    0.0000    0.0000 H   0  0  0  0  0  0  0  0  0  0  0  0
    0.0000    0.0000    0.0000 H   0  0  0  0  0  0  0  0  0  0  0  0
    0.0000    0.0000    0.0000 H   0  0  0  0  0  0  0  0  0  0  0  0
    0.0000    0.0000    0.0000 H   0  0  0  0  0  0  0  0  0  0  0  0
  1  2  1  6
  1  3  1  0
  1  4  1  0
  1  5  1  0
  6  2  1  6
  3  7  1  0
  4  8  1  0
  4  9  1  6
  5 10  1  0
  6 11  1  0
  6 12  1  0
  7 13  1  1
  8 14  1  6
 11 15  1  0
 12 16  1  0
 12 17  1  1
 13 18  1  0
 15 19  1  0
 15 20  1  1
 16 21  1  6
 19 22  1  6
 20 23  1  0
  7  8  1  0
 16 19  1  0
  4 24  1  0
  5 25  1  0
  5 26  1  0
  6 27  1  0
  7 28  1  0
  8 29  1  0
  9 30  1  0
 10 31  1  0
 12 32  1  0
 13 33  1  0
 13 34  1  0
 14 35  1  0
 15 36  1  0
 16 37  1  0
 17 38  1  0
 18 39  1  0
 19 40  1  0
 20 41  1  0
 20 42  1  0
 21 43  1  0
 22 44  1  0
 23 45  1  0
M  END
>  <ALOGPS_LOGP>  (1) 
-2.63

>  <ALOGPS_LOGS>  (1) 
0.38

>  <ALOGPS_SOLUBILITY>  (1) 
8.24e+02 g/l

>  <DATABASE_ID>  (1) 
DB02772

>  <DATABASE_NAME>  (1) 
drugbank

>  <DRUGBANK_ID>  (1) 
DB02772

>  <DRUG_GROUPS>  (1) 
approved; experimental

>  <EXACT_MASS>  (1) 
342.116211546

>  <FORMULA>  (1) 
C12H22O11

>  <GENERIC_NAME>  (1) 
Sucrose

>  <INCHI_IDENTIFIER>  (1) 
InChI=1S/C12H22O11/c13-1-4-6(16)8(18)9(19)11(21-4)23-12(3-15)10(20)7(17)5(2-14)22-12/h4-11,13-20H,1-3H2/t4-,5-,6-,7-,8+,9-,10+,11-,12+/m1/s1

>  <INCHI_KEY>  (1) 
CZMRCDWAGMRECN-UGDNZRGBSA-N

>  <JCHEM_ACCEPTOR_COUNT>  (1) 
11

>  <JCHEM_AVERAGE_POLARIZABILITY>  (1) 
31.033694152804387

>  <JCHEM_BIOAVAILABILITY>  (1) 
0

>  <JCHEM_DONOR_COUNT>  (1) 
8

>  <JCHEM_FORMAL_CHARGE>  (1) 
0

>  <JCHEM_GHOSE_FILTER>  (1) 
0

>  <JCHEM_IUPAC>  (1) 
(2R,3R,4S,5S,6R)-2-{[(2S,3S,4S,5R)-3,4-dihydroxy-2,5-bis(hydroxymethyl)oxolan-2-yl]oxy}-6-(hydroxymethyl)oxane-3,4,5-triol

>  <JCHEM_LOGP>  (1) 
-4.528834963666666

>  <JCHEM_MDDR_LIKE_RULE>  (1) 
0

>  <JCHEM_NUMBER_OF_RINGS>  (1) 
2

>  <JCHEM_PHYSIOLOGICAL_CHARGE>  (1) 
0

>  <JCHEM_PKA>  (1) 
12.393795156229878

>  <JCHEM_PKA_STRONGEST_ACIDIC>  (1) 
11.841279964942517

>  <JCHEM_PKA_STRONGEST_BASIC>  (1) 
-2.9810849127905703

>  <JCHEM_POLAR_SURFACE_AREA>  (1) 
189.52999999999997

>  <JCHEM_REFRACTIVITY>  (1) 
68.7741

>  <JCHEM_ROTATABLE_BOND_COUNT>  (1) 
5

>  <JCHEM_RULE_OF_FIVE>  (1) 
0

>  <JCHEM_TRADITIONAL_IUPAC>  (1) 
sucrose

>  <JCHEM_VEBER_RULE>  (1) 
0

>  <MOLECULAR_WEIGHT>  (1) 
342.2965

>  <PRODUCTS>  (1) 
Childrens Emetrol Dye Free Grape; Emetrol Cherry; Select Brand Anti-Nausea

>  <SECONDARY_ACCESSION_NUMBERS>  (1) 
EXPT02977

>  <SMILES>  (1) 
OC[C@H]1O[C@@](CO)(O[C@H]2O[C@H](CO)[C@@H](O)[C@H](O)[C@H]2O)[C@@H](O)[C@@H]1O

$$$$
