
     RDKit          2D

  9  8  0  0  0  0  0  0  0  0999 V2000
    0.8250    1.4289    0.0000 O   0  0  0  0  0  0  0  0  0  0  0  0
    1.2375    0.7145    0.0000 C   0  0  0  0  0  0  0  0  0  0  0  0
    0.8250    0.0000    0.0000 C   0  0  0  0  0  0  0  0  0  0  0  0
    1.2375   -0.7145    0.0000 O   0  0  0  0  0  0  0  0  0  0  0  0
    0.0000    0.0000    0.0000 O   0  0  0  0  0  0  0  0  0  0  0  0
    0.0000    0.0000    0.0000 H   0  0  0  0  0  0  0  0  0  0  0  0
    0.0000    0.0000    0.0000 H   0  0  0  0  0  0  0  0  0  0  0  0
    0.0000    0.0000    0.0000 H   0  0  0  0  0  0  0  0  0  0  0  0
    0.0000    0.0000    0.0000 H   0  0  0  0  0  0  0  0  0  0  0  0
  1  2  1  0
  2  3  1  0
  3  4  1  0
  3  5  2  0
  1  6  1  0
  2  7  1  0
  2  8  1  0
  4  9  1  0
M  END
>  <ALOGPS_LOGP>  (1) 
-1.02

>  <ALOGPS_LOGS>  (1) 
0.90

>  <ALOGPS_SOLUBILITY>  (1) 
6.08e+02 g/l

>  <DATABASE_ID>  (1) 
DB03085

>  <DATABASE_NAME>  (1) 
drugbank

>  <DRUGBANK_ID>  (1) 
DB03085

>  <DRUG_GROUPS>  (1) 
approved; investigational

>  <EXACT_MASS>  (1) 
76.016043994

>  <FORMULA>  (1) 
C2H4O3

>  <GENERIC_NAME>  (1) 
Glycolic acid

>  <INCHI_IDENTIFIER>  (1) 
InChI=1S/C2H4O3/c3-1-2(4)5/h3H,1H2,(H,4,5)

>  <INCHI_KEY>  (1) 
AEMRFAOFKBGASW-UHFFFAOYSA-N

>  <JCHEM_ACCEPTOR_COUNT>  (1) 
3

>  <JCHEM_AVERAGE_POLARIZABILITY>  (1) 
6.195837007972225

>  <JCHEM_BIOAVAILABILITY>  (1) 
1

>  <JCHEM_DONOR_COUNT>  (1) 
2

>  <JCHEM_FORMAL_CHARGE>  (1) 
0

>  <JCHEM_GHOSE_FILTER>  (1) 
0

>  <JCHEM_IUPAC>  (1) 
2-hydroxyacetic acid

>  <JCHEM_LOGP>  (1) 
-1.0405937603333335

>  <JCHEM_MDDR_LIKE_RULE>  (1) 
0

>  <JCHEM_NUMBER_OF_RINGS>  (1) 
0

>  <JCHEM_PHYSIOLOGICAL_CHARGE>  (1) 
-1

>  <JCHEM_PKA>  (1) 
14.780077957574235

>  <JCHEM_PKA_STRONGEST_ACIDIC>  (1) 
3.526322592592504

>  <JCHEM_PKA_STRONGEST_BASIC>  (1) 
-3.6133096708862027

>  <JCHEM_POLAR_SURFACE_AREA>  (1) 
57.53

>  <JCHEM_REFRACTIVITY>  (1) 
14.345899999999999

>  <JCHEM_ROTATABLE_BOND_COUNT>  (1) 
1

>  <JCHEM_RULE_OF_FIVE>  (1) 
1

>  <JCHEM_TRADITIONAL_IUPAC>  (1) 
glycolic acid

>  <JCHEM_VEBER_RULE>  (1) 
0

>  <MOLECULAR_WEIGHT>  (1) 
76.0514

>  <PRODUCTS>  (1) 
AHA 7 Whitehead Power Liquid; Clear Cell Salicylic Clarifying Tonic; bdr Re-action deep low base skin refiner exfoliation essence

>  <SECONDARY_ACCESSION_NUMBERS>  (1) 
EXPT01629; DB11307

>  <SMILES>  (1) 
OCC(O)=O

>  <SYNONYMS>  (1) 
2-Hydroxyacetic acid; 2-Hydroxyethanoic acid; alpha-Hydroxyacetic acid; Glycollic acid; Hydroxyacetic Acid; Î±-hydroxyacetic acid

$$$$
