
     RDKit          2D

 56 55  0  0  0  0  0  0  0  0999 V2000
   14.4362   -9.3843    0.0000 C   0  0  0  0  0  0  0  0  0  0  0  0
   15.1507   -8.9718    0.0000 C   0  0  0  0  0  0  0  0  0  0  0  0
   14.4362  -10.2093    0.0000 C   0  0  0  0  0  0  0  0  0  0  0  0
   15.8651   -9.3843    0.0000 C   0  0  0  0  0  0  0  0  0  0  0  0
   16.5796   -8.9718    0.0000 C   0  0  0  0  0  0  0  0  0  0  0  0
   17.2941   -9.3843    0.0000 C   0  0  0  0  0  0  0  0  0  0  0  0
   17.2941  -10.7485    0.0000 C   0  0  0  0  0  0  0  0  0  0  0  0
   18.0086  -11.1610    0.0000 C   0  0  0  0  0  0  0  0  0  0  0  0
   18.0086  -12.4443    0.0000 C   0  0  0  0  0  0  0  0  0  0  0  0
   17.2941  -12.8568    0.0000 C   0  0  0  0  0  0  0  0  0  0  0  0
   17.2941  -14.2480    0.0000 C   0  0  0  0  0  0  0  0  0  0  0  0
   16.5796  -14.6605    0.0000 C   0  0  0  0  0  0  0  0  0  0  0  0
   15.8651  -14.2480    0.0000 C   0  0  0  0  0  0  0  0  0  0  0  0
   15.1507  -14.6605    0.0000 C   0  0  0  0  0  0  0  0  0  0  0  0
   14.4362  -14.2480    0.0000 C   0  0  0  0  0  0  0  0  0  0  0  0
   14.4362  -13.4230    0.0000 C   0  0  0  0  0  0  0  0  0  0  0  0
   13.7218  -13.0105    0.0000 C   0  0  0  0  0  0  0  0  0  0  0  0
   13.7218  -12.1855    0.0000 C   0  0  0  0  0  0  0  0  0  0  0  0
   14.4362  -11.7730    0.0000 C   0  0  0  0  0  0  0  0  0  0  0  0
   15.1507  -12.1855    0.0000 C   0  0  0  0  0  0  0  0  0  0  0  0
   15.8651  -11.7730    0.0000 C   0  0  0  0  0  0  0  0  0  0  0  0
   16.5796  -12.1855    0.0000 O   0  0  0  0  0  0  0  0  0  0  0  0
   15.8651  -10.9480    0.0000 O   0  0  0  0  0  0  0  0  0  0  0  0
   13.7218  -10.6218    0.0000 C   0  0  0  0  0  0  0  0  0  0  0  0
    0.0000    0.0000    0.0000 H   0  0  0  0  0  0  0  0  0  0  0  0
    0.0000    0.0000    0.0000 H   0  0  0  0  0  0  0  0  0  0  0  0
    0.0000    0.0000    0.0000 H   0  0  0  0  0  0  0  0  0  0  0  0
    0.0000    0.0000    0.0000 H   0  0  0  0  0  0  0  0  0  0  0  0
    0.0000    0.0000    0.0000 H   0  0  0  0  0  0  0  0  0  0  0  0
    0.0000    0.0000    0.0000 H   0  0  0  0  0  0  0  0  0  0  0  0
    0.0000    0.0000    0.0000 H   0  0  0  0  0  0  0  0  0  0  0  0
    0.0000    0.0000    0.0000 H   0  0  0  0  0  0  0  0  0  0  0  0
    0.0000    0.0000    0.0000 H   0  0  0  0  0  0  0  0  0  0  0  0
    0.0000    0.0000    0.0000 H   0  0  0  0  0  0  0  0  0  0  0  0
    0.0000    0.0000    0.0000 H   0  0  0  0  0  0  0  0  0  0  0  0
    0.0000    0.0000    0.0000 H   0  0  0  0  0  0  0  0  0  0  0  0
    0.0000    0.0000    0.0000 H   0  0  0  0  0  0  0  0  0  0  0  0
    0.0000    0.0000    0.0000 H   0  0  0  0  0  0  0  0  0  0  0  0
    0.0000    0.0000    0.0000 H   0  0  0  0  0  0  0  0  0  0  0  0
    0.0000    0.0000    0.0000 H   0  0  0  0  0  0  0  0  0  0  0  0
    0.0000    0.0000    0.0000 H   0  0  0  0  0  0  0  0  0  0  0  0
    0.0000    0.0000    0.0000 H   0  0  0  0  0  0  0  0  0  0  0  0
    0.0000    0.0000    0.0000 H   0  0  0  0  0  0  0  0  0  0  0  0
    0.0000    0.0000    0.0000 H   0  0  0  0  0  0  0  0  0  0  0  0
    0.0000    0.0000    0.0000 H   0  0  0  0  0  0  0  0  0  0  0  0
    0.0000    0.0000    0.0000 H   0  0  0  0  0  0  0  0  0  0  0  0
    0.0000    0.0000    0.0000 H   0  0  0  0  0  0  0  0  0  0  0  0
    0.0000    0.0000    0.0000 H   0  0  0  0  0  0  0  0  0  0  0  0
    0.0000    0.0000    0.0000 H   0  0  0  0  0  0  0  0  0  0  0  0
    0.0000    0.0000    0.0000 H   0  0  0  0  0  0  0  0  0  0  0  0
    0.0000    0.0000    0.0000 H   0  0  0  0  0  0  0  0  0  0  0  0
    0.0000    0.0000    0.0000 H   0  0  0  0  0  0  0  0  0  0  0  0
    0.0000    0.0000    0.0000 H   0  0  0  0  0  0  0  0  0  0  0  0
    0.0000    0.0000    0.0000 H   0  0  0  0  0  0  0  0  0  0  0  0
    0.0000    0.0000    0.0000 H   0  0  0  0  0  0  0  0  0  0  0  0
    0.0000    0.0000    0.0000 H   0  0  0  0  0  0  0  0  0  0  0  0
  1  2  2  0
  1  3  1  0
  2  4  1  0
  4  5  1  0
  5  6  2  0
  6  7  1  0
  7  8  1  0
  8  9  2  0
  9 10  1  0
 10 11  1  0
 11 12  2  0
 12 13  1  0
 13 14  1  0
 14 15  2  0
 15 16  1  0
 16 17  1  0
 17 18  2  0
 18 19  1  0
 19 20  1  0
 20 21  1  0
 21 22  1  0
 21 23  2  0
  3 24  1  0
  1 25  1  0
  2 26  1  0
  3 27  1  0
  3 28  1  0
  4 29  1  0
  4 30  1  0
  5 31  1  0
  6 32  1  0
  7 33  1  0
  7 34  1  0
  8 35  1  0
  9 36  1  0
 10 37  1  0
 10 38  1  0
 11 39  1  0
 12 40  1  0
 13 41  1  0
 13 42  1  0
 14 43  1  0
 15 44  1  0
 16 45  1  0
 16 46  1  0
 17 47  1  0
 18 48  1  0
 19 49  1  0
 19 50  1  0
 20 51  1  0
 20 52  1  0
 22 53  1  0
 24 54  1  0
 24 55  1  0
 24 56  1  0
M  END
>  <ALOGPS_LOGP>  (1) 
6.83

>  <ALOGPS_LOGS>  (1) 
-6.25

>  <ALOGPS_SOLUBILITY>  (1) 
1.86e-04 g/l

>  <DATABASE_ID>  (1) 
DB03756

>  <DATABASE_NAME>  (1) 
drugbank

>  <DRUGBANK_ID>  (1) 
DB03756

>  <DRUG_GROUPS>  (1) 
approved; investigational

>  <EXACT_MASS>  (1) 
328.240230268

>  <FORMULA>  (1) 
C22H32O2

>  <GENERIC_NAME>  (1) 
Doconexent

>  <INCHI_IDENTIFIER>  (1) 
InChI=1S/C22H32O2/c1-2-3-4-5-6-7-8-9-10-11-12-13-14-15-16-17-18-19-20-21-22(23)24/h3-4,6-7,9-10,12-13,15-16,18-19H,2,5,8,11,14,17,20-21H2,1H3,(H,23,24)/b4-3-,7-6-,10-9-,13-12-,16-15-,19-18-

>  <INCHI_KEY>  (1) 
MBMBGCFOFBJSGT-KUBAVDMBSA-N

>  <JCHEM_ACCEPTOR_COUNT>  (1) 
2

>  <JCHEM_AVERAGE_POLARIZABILITY>  (1) 
38.62627799097257

>  <JCHEM_BIOAVAILABILITY>  (1) 
0

>  <JCHEM_DONOR_COUNT>  (1) 
1

>  <JCHEM_FORMAL_CHARGE>  (1) 
0

>  <JCHEM_GHOSE_FILTER>  (1) 
0

>  <JCHEM_IUPAC>  (1) 
(4Z,7Z,10Z,13Z,16Z,19Z)-docosa-4,7,10,13,16,19-hexaenoic acid

>  <JCHEM_LOGP>  (1) 
6.752464827666667

>  <JCHEM_MDDR_LIKE_RULE>  (1) 
0

>  <JCHEM_NUMBER_OF_RINGS>  (1) 
0

>  <JCHEM_PHYSIOLOGICAL_CHARGE>  (1) 
-1

>  <JCHEM_PKA_STRONGEST_ACIDIC>  (1) 
4.8854984143453795

>  <JCHEM_POLAR_SURFACE_AREA>  (1) 
37.3

>  <JCHEM_REFRACTIVITY>  (1) 
111.3892

>  <JCHEM_ROTATABLE_BOND_COUNT>  (1) 
14

>  <JCHEM_RULE_OF_FIVE>  (1) 
0

>  <JCHEM_TRADITIONAL_IUPAC>  (1) 
docosahexaenoic acid

>  <JCHEM_VEBER_RULE>  (1) 
0

>  <MOLECULAR_WEIGHT>  (1) 
328.4883

>  <PRODUCTS>  (1) 
Animi-3; Animi-3 with Vitamin D; CitraNatal Assure; CitraNatal Harmony 3.0; Extra-Virt Plus DHA; Folcal DHA; Folcaps Care One; Folcaps Omega-3; Folet One; Folivane-PRx DHA; Gesticare DHA; Iron Polysaccharides Folic Acid DHA; Natelle One; PRENATE Enhance; PRENATE Restore; Pnv-dha; PreNexa; PreQue 10; PreferaOB One; Prenaissance; Prenaissance Plus; Prenatal, DHA; Prenate Essential; Se-Tan DHA; Triveen-PRx RNF; UltimateCare ONE NF; VP CH Plus; VP CH Ultra; VP-HEME One; VemaVite-PRx 2 with Fish-Based DHA; Virt-PN Plus; Virt-Pn DHA; Vitafol Ultra; Vp-CH-pnv; Zatean-CH

>  <SALTS>  (1) 
Doconexent sodium

>  <SECONDARY_ACCESSION_NUMBERS>  (1) 
EXPT01798; DB11070

>  <SMILES>  (1) 
CC\C=C/C\C=C/C\C=C/C\C=C/C\C=C/C\C=C/CCC(O)=O

>  <SYNONYMS>  (1) 
(4Z,7Z,10Z,13Z,16Z,19Z)-Docosahexaenoic acid; 22:6-4, 7,10,13,16,19; 22:6(n-3); 4,7,10,13,16,19-docosahexaenoic acid; 4,7,10,13,16,19-Docosahexaenoic acid; all-cis-4,7,10,13,16,19-docosahexaenoic acid; all-cis-DHA; cervonic acid; DHA; docosa-4,7,10,13,16,19-hexaenoic acid; Docosahexaenoic acid

$$$$
