
     RDKit          2D

 65 67  0  0  1  0  0  0  0  0999 V2000
    0.6052    1.7431    0.0000 C   0  0  0  0  0  0  0  0  0  0  0  0
    2.8805   -0.1730    0.0000 C   0  0  0  0  0  0  0  0  0  0  0  0
   -0.7376    5.7111    0.0000 C   0  0  0  0  0  0  0  0  0  0  0  0
    0.1203    2.4105    0.0000 C   0  0  0  0  0  0  0  0  0  0  0  0
    1.4257    1.8293    0.0000 C   0  0  0  0  0  0  0  0  0  0  0  0
    3.2160    0.5807    0.0000 C   0  0  0  0  0  0  0  0  0  0  0  0
    0.0470    5.4562    0.0000 C   0  0  0  0  0  0  0  0  0  0  0  0
    3.8871    2.0880    0.0000 C   0  0  0  0  0  0  0  0  0  0  0  0
    0.4559    3.1642    0.0000 C   0  0  0  0  0  0  0  0  0  0  0  0
    4.0365    0.6669    0.0000 C   0  0  0  0  0  0  0  0  0  0  0  0
    0.7145    5.9411    0.0000 C   0  0  0  0  0  0  0  0  0  0  0  0
    4.3721    1.4206    0.0000 C   0  0  0  0  0  0  0  0  0  0  0  0
    1.3819    5.4562    0.0000 C   0  0  0  0  0  0  0  0  0  0  0  0
    1.7613    2.5830    0.0000 C   0  0  0  0  0  0  0  0  0  0  0  0
    1.2763    3.2504    0.0000 C   0  0  0  0  0  0  0  0  0  0  0  0
    3.0667    2.0018    0.0000 C   0  0  0  0  0  0  0  0  0  0  0  0
    1.1270    4.6715    0.0000 C   0  0  0  0  0  0  0  0  0  0  0  0
    2.0600   -0.2593    0.0000 N   0  0  0  0  0  0  0  0  0  0  0  0
   -0.7002    2.3243    0.0000 N   0  0  0  0  0  0  0  0  0  0  0  0
    1.9106    1.1619    0.0000 N   0  0  0  0  0  0  0  0  0  0  0  0
    4.2227    2.8417    0.0000 N   0  0  0  0  0  0  0  0  0  0  0  0
   -0.9091    6.5181    0.0000 O   0  0  0  0  0  0  0  0  0  0  0  0
   -0.0291    3.8316    0.0000 O   0  0  0  0  0  0  0  0  0  0  0  0
    4.5214   -0.0005    0.0000 O   0  0  0  0  0  0  0  0  0  0  0  0
    0.7145    6.7661    0.0000 O   0  0  0  0  0  0  0  0  0  0  0  0
    5.1925    1.5068    0.0000 O   0  0  0  0  0  0  0  0  0  0  0  0
    2.1665    5.7111    0.0000 O   0  0  0  0  0  0  0  0  0  0  0  0
    2.7311    1.2481    0.0000 O   0  0  0  0  0  0  0  0  0  0  0  0
    0.3020    4.6715    0.0000 O   0  0  0  0  0  0  0  0  0  0  0  0
    2.5817    2.6692    0.0000 O   0  0  0  0  0  0  0  0  0  0  0  0
    1.6119    4.0041    0.0000 O   0  0  0  0  0  0  0  0  0  0  0  0
    0.0000    0.0000    0.0000 H   0  0  0  0  0  0  0  0  0  0  0  0
    0.0000    0.0000    0.0000 H   0  0  0  0  0  0  0  0  0  0  0  0
    0.0000    0.0000    0.0000 H   0  0  0  0  0  0  0  0  0  0  0  0
    0.0000    0.0000    0.0000 H   0  0  0  0  0  0  0  0  0  0  0  0
    0.0000    0.0000    0.0000 H   0  0  0  0  0  0  0  0  0  0  0  0
    0.0000    0.0000    0.0000 H   0  0  0  0  0  0  0  0  0  0  0  0
    0.0000    0.0000    0.0000 H   0  0  0  0  0  0  0  0  0  0  0  0
    0.0000    0.0000    0.0000 H   0  0  0  0  0  0  0  0  0  0  0  0
    0.0000    0.0000    0.0000 H   0  0  0  0  0  0  0  0  0  0  0  0
    0.0000    0.0000    0.0000 H   0  0  0  0  0  0  0  0  0  0  0  0
    0.0000    0.0000    0.0000 H   0  0  0  0  0  0  0  0  0  0  0  0
    0.0000    0.0000    0.0000 H   0  0  0  0  0  0  0  0  0  0  0  0
    0.0000    0.0000    0.0000 H   0  0  0  0  0  0  0  0  0  0  0  0
    0.0000    0.0000    0.0000 H   0  0  0  0  0  0  0  0  0  0  0  0
    0.0000    0.0000    0.0000 H   0  0  0  0  0  0  0  0  0  0  0  0
    0.0000    0.0000    0.0000 H   0  0  0  0  0  0  0  0  0  0  0  0
    0.0000    0.0000    0.0000 H   0  0  0  0  0  0  0  0  0  0  0  0
    0.0000    0.0000    0.0000 H   0  0  0  0  0  0  0  0  0  0  0  0
    0.0000    0.0000    0.0000 H   0  0  0  0  0  0  0  0  0  0  0  0
    0.0000    0.0000    0.0000 H   0  0  0  0  0  0  0  0  0  0  0  0
    0.0000    0.0000    0.0000 H   0  0  0  0  0  0  0  0  0  0  0  0
    0.0000    0.0000    0.0000 H   0  0  0  0  0  0  0  0  0  0  0  0
    0.0000    0.0000    0.0000 H   0  0  0  0  0  0  0  0  0  0  0  0
    0.0000    0.0000    0.0000 H   0  0  0  0  0  0  0  0  0  0  0  0
    0.0000    0.0000    0.0000 H   0  0  0  0  0  0  0  0  0  0  0  0
    0.0000    0.0000    0.0000 H   0  0  0  0  0  0  0  0  0  0  0  0
    0.0000    0.0000    0.0000 H   0  0  0  0  0  0  0  0  0  0  0  0
    0.0000    0.0000    0.0000 H   0  0  0  0  0  0  0  0  0  0  0  0
    0.0000    0.0000    0.0000 H   0  0  0  0  0  0  0  0  0  0  0  0
    0.0000    0.0000    0.0000 H   0  0  0  0  0  0  0  0  0  0  0  0
    0.0000    0.0000    0.0000 H   0  0  0  0  0  0  0  0  0  0  0  0
    0.0000    0.0000    0.0000 H   0  0  0  0  0  0  0  0  0  0  0  0
    0.0000    0.0000    0.0000 H   0  0  0  0  0  0  0  0  0  0  0  0
    0.0000    0.0000    0.0000 H   0  0  0  0  0  0  0  0  0  0  0  0
  4  1  1  0
  5  1  1  0
  6  2  1  1
  7  3  1  6
  9  4  1  0
 10  6  1  0
 11  7  1  0
 12  8  1  0
 12 10  1  0
 13 11  1  0
 14  5  1  0
 15  9  1  0
 15 14  1  0
 16  8  1  0
 17 13  1  0
 18  2  1  0
  4 19  1  1
  5 20  1  1
  8 21  1  1
 22  3  1  0
  9 23  1  1
 10 24  1  6
 11 25  1  6
 12 26  1  6
 13 27  1  1
 28  6  1  0
 28 16  1  0
 29  7  1  0
 29 17  1  0
 14 30  1  1
 16 30  1  6
 15 31  1  6
 17 31  1  6
  1 32  1  0
  1 33  1  0
  2 34  1  0
  2 35  1  0
  3 36  1  0
  3 37  1  0
  4 38  1  0
  5 39  1  0
  6 40  1  0
  7 41  1  0
  8 42  1  0
  9 43  1  0
 10 44  1  0
 11 45  1  0
 12 46  1  0
 13 47  1  0
 14 48  1  0
 15 49  1  0
 16 50  1  0
 17 51  1  0
 18 52  1  0
 18 53  1  0
 19 54  1  0
 19 55  1  0
 20 56  1  0
 20 57  1  0
 21 58  1  0
 21 59  1  0
 22 60  1  0
 23 61  1  0
 24 62  1  0
 25 63  1  0
 26 64  1  0
 27 65  1  0
M  END
>  <ALOGPS_LOGP>  (1) 
-2.92

>  <ALOGPS_LOGS>  (1) 
-0.71

>  <ALOGPS_SOLUBILITY>  (1) 
8.87e+01 g/l

>  <DATABASE_ID>  (1) 
DB03615

>  <DATABASE_NAME>  (1) 
drugbank

>  <DRUGBANK_ID>  (1) 
DB03615

>  <DRUG_GROUPS>  (1) 
approved; investigational

>  <EXACT_MASS>  (1) 
454.227493328

>  <FORMULA>  (1) 
C17H34N4O10

>  <GENERIC_NAME>  (1) 
Ribostamycin

>  <INCHI_IDENTIFIER>  (1) 
InChI=1S/C17H34N4O10/c18-2-6-10(24)12(26)8(21)16(28-6)30-14-5(20)1-4(19)9(23)15(14)31-17-13(27)11(25)7(3-22)29-17/h4-17,22-27H,1-3,18-21H2/t4-,5+,6-,7-,8-,9+,10-,11-,12-,13-,14-,15-,16-,17+/m1/s1

>  <INCHI_KEY>  (1) 
NSKGQURZWSPSBC-VVPCINPTSA-N

>  <JCHEM_ACCEPTOR_COUNT>  (1) 
14

>  <JCHEM_AVERAGE_POLARIZABILITY>  (1) 
44.29203147690896

>  <JCHEM_BIOAVAILABILITY>  (1) 
0

>  <JCHEM_DONOR_COUNT>  (1) 
10

>  <JCHEM_FORMAL_CHARGE>  (1) 
0

>  <JCHEM_GHOSE_FILTER>  (1) 
0

>  <JCHEM_IUPAC>  (1) 
(2R,3S,4R,5R,6R)-5-amino-2-(aminomethyl)-6-{[(1R,2R,3S,4R,6S)-4,6-diamino-2-{[(2S,3R,4S,5R)-3,4-dihydroxy-5-(hydroxymethyl)oxolan-2-yl]oxy}-3-hydroxycyclohexyl]oxy}oxane-3,4-diol

>  <JCHEM_LOGP>  (1) 
-6.430578507000001

>  <JCHEM_MDDR_LIKE_RULE>  (1) 
1

>  <JCHEM_NUMBER_OF_RINGS>  (1) 
3

>  <JCHEM_PHYSIOLOGICAL_CHARGE>  (1) 
4

>  <JCHEM_PKA>  (1) 
12.973624259648087

>  <JCHEM_PKA_STRONGEST_ACIDIC>  (1) 
12.1938657158369

>  <JCHEM_PKA_STRONGEST_BASIC>  (1) 
9.931338624305104

>  <JCHEM_POLAR_SURFACE_AREA>  (1) 
262.37999999999994

>  <JCHEM_REFRACTIVITY>  (1) 
100.172

>  <JCHEM_ROTATABLE_BOND_COUNT>  (1) 
6

>  <JCHEM_RULE_OF_FIVE>  (1) 
0

>  <JCHEM_TRADITIONAL_IUPAC>  (1) 
ribostamycin

>  <JCHEM_VEBER_RULE>  (1) 
0

>  <MOLECULAR_WEIGHT>  (1) 
454.4727

>  <SALTS>  (1) 
Ribostamycin sulfate

>  <SECONDARY_ACCESSION_NUMBERS>  (1) 
EXPT02786

>  <SMILES>  (1) 
[H][C@]1(CO)O[C@@]([H])(O[C@]2([H])[C@@]([H])(O)[C@]([H])(N)C[C@]([H])(N)[C@@]2([H])O[C@@]2([H])O[C@]([H])(CN)[C@@]([H])(O)[C@]([H])(O)[C@@]2([H])N)[C@]([H])(O)[C@]1([H])O

>  <SYNONYMS>  (1) 
Vistamycin

$$$$
