DAO
     RDKit          2D

 38 37  0  0  0  0  0  0  0  0999 V2000
   -4.6656    0.2379    0.0000 O   0  0  0  0  0  0  0  0  0  0  0  0
   -3.9511   -0.9997    0.0000 O   0  0  0  0  0  0  0  0  0  0  0  0
   -3.9511   -0.1746    0.0000 C   0  0  0  0  0  0  0  0  0  0  0  0
   -3.2365    0.2379    0.0000 C   0  0  0  0  0  0  0  0  0  0  0  0
   -2.5221   -0.1746    0.0000 C   0  0  0  0  0  0  0  0  0  0  0  0
   -1.8075    0.2379    0.0000 C   0  0  0  0  0  0  0  0  0  0  0  0
   -1.0930   -0.1746    0.0000 C   0  0  0  0  0  0  0  0  0  0  0  0
   -0.3785    0.2379    0.0000 C   0  0  0  0  0  0  0  0  0  0  0  0
    0.3360   -0.1746    0.0000 C   0  0  0  0  0  0  0  0  0  0  0  0
    1.0506    0.2379    0.0000 C   0  0  0  0  0  0  0  0  0  0  0  0
    1.7651   -0.1746    0.0000 C   0  0  0  0  0  0  0  0  0  0  0  0
    2.4796    0.2379    0.0000 C   0  0  0  0  0  0  0  0  0  0  0  0
    3.1941   -0.1746    0.0000 C   0  0  0  0  0  0  0  0  0  0  0  0
    3.9087    0.2379    0.0000 C   0  0  0  0  0  0  0  0  0  0  0  0
    0.0000    0.0000    0.0000 H   0  0  0  0  0  0  0  0  0  0  0  0
    0.0000    0.0000    0.0000 H   0  0  0  0  0  0  0  0  0  0  0  0
    0.0000    0.0000    0.0000 H   0  0  0  0  0  0  0  0  0  0  0  0
    0.0000    0.0000    0.0000 H   0  0  0  0  0  0  0  0  0  0  0  0
    0.0000    0.0000    0.0000 H   0  0  0  0  0  0  0  0  0  0  0  0
    0.0000    0.0000    0.0000 H   0  0  0  0  0  0  0  0  0  0  0  0
    0.0000    0.0000    0.0000 H   0  0  0  0  0  0  0  0  0  0  0  0
    0.0000    0.0000    0.0000 H   0  0  0  0  0  0  0  0  0  0  0  0
    0.0000    0.0000    0.0000 H   0  0  0  0  0  0  0  0  0  0  0  0
    0.0000    0.0000    0.0000 H   0  0  0  0  0  0  0  0  0  0  0  0
    0.0000    0.0000    0.0000 H   0  0  0  0  0  0  0  0  0  0  0  0
    0.0000    0.0000    0.0000 H   0  0  0  0  0  0  0  0  0  0  0  0
    0.0000    0.0000    0.0000 H   0  0  0  0  0  0  0  0  0  0  0  0
    0.0000    0.0000    0.0000 H   0  0  0  0  0  0  0  0  0  0  0  0
    0.0000    0.0000    0.0000 H   0  0  0  0  0  0  0  0  0  0  0  0
    0.0000    0.0000    0.0000 H   0  0  0  0  0  0  0  0  0  0  0  0
    0.0000    0.0000    0.0000 H   0  0  0  0  0  0  0  0  0  0  0  0
    0.0000    0.0000    0.0000 H   0  0  0  0  0  0  0  0  0  0  0  0
    0.0000    0.0000    0.0000 H   0  0  0  0  0  0  0  0  0  0  0  0
    0.0000    0.0000    0.0000 H   0  0  0  0  0  0  0  0  0  0  0  0
    0.0000    0.0000    0.0000 H   0  0  0  0  0  0  0  0  0  0  0  0
    0.0000    0.0000    0.0000 H   0  0  0  0  0  0  0  0  0  0  0  0
    0.0000    0.0000    0.0000 H   0  0  0  0  0  0  0  0  0  0  0  0
    0.0000    0.0000    0.0000 H   0  0  0  0  0  0  0  0  0  0  0  0
  1  3  2  0
  2  3  1  0
  3  4  1  0
  4  5  1  0
  5  6  1  0
  6  7  1  0
  7  8  1  0
  8  9  1  0
  9 10  1  0
 10 11  1  0
 11 12  1  0
 12 13  1  0
 13 14  1  0
  2 15  1  0
  4 16  1  0
  4 17  1  0
  5 18  1  0
  5 19  1  0
  6 20  1  0
  6 21  1  0
  7 22  1  0
  7 23  1  0
  8 24  1  0
  8 25  1  0
  9 26  1  0
  9 27  1  0
 10 28  1  0
 10 29  1  0
 11 30  1  0
 11 31  1  0
 12 32  1  0
 12 33  1  0
 13 34  1  0
 13 35  1  0
 14 36  1  0
 14 37  1  0
 14 38  1  0
M  END
>  <ALOGPS_LOGP>  (1) 
5.13

>  <ALOGPS_LOGS>  (1) 
-4.30

>  <ALOGPS_SOLUBILITY>  (1) 
9.97e-03 g/l

>  <DATABASE_ID>  (1) 
DB03017

>  <DATABASE_NAME>  (1) 
drugbank

>  <DRUGBANK_ID>  (1) 
DB03017

>  <DRUG_GROUPS>  (1) 
approved; experimental

>  <EXACT_MASS>  (1) 
200.177630012

>  <FORMULA>  (1) 
C12H24O2

>  <GENERIC_NAME>  (1) 
Lauric Acid

>  <INCHI_IDENTIFIER>  (1) 
InChI=1S/C12H24O2/c1-2-3-4-5-6-7-8-9-10-11-12(13)14/h2-11H2,1H3,(H,13,14)

>  <INCHI_KEY>  (1) 
POULHZVOKOAJMA-UHFFFAOYSA-N

>  <JCHEM_ACCEPTOR_COUNT>  (1) 
2

>  <JCHEM_AVERAGE_POLARIZABILITY>  (1) 
25.846297240499503

>  <JCHEM_BIOAVAILABILITY>  (1) 
1

>  <JCHEM_DONOR_COUNT>  (1) 
1

>  <JCHEM_FORMAL_CHARGE>  (1) 
0

>  <JCHEM_GHOSE_FILTER>  (1) 
1

>  <JCHEM_IUPAC>  (1) 
dodecanoic acid

>  <JCHEM_LOGP>  (1) 
4.478308117666667

>  <JCHEM_MDDR_LIKE_RULE>  (1) 
0

>  <JCHEM_NUMBER_OF_RINGS>  (1) 
0

>  <JCHEM_PHYSIOLOGICAL_CHARGE>  (1) 
-1

>  <JCHEM_PKA_STRONGEST_ACIDIC>  (1) 
4.952019655228562

>  <JCHEM_POLAR_SURFACE_AREA>  (1) 
37.3

>  <JCHEM_REFRACTIVITY>  (1) 
58.67959999999999

>  <JCHEM_ROTATABLE_BOND_COUNT>  (1) 
10

>  <JCHEM_RULE_OF_FIVE>  (1) 
1

>  <JCHEM_TRADITIONAL_IUPAC>  (1) 
lauric acid

>  <JCHEM_VEBER_RULE>  (1) 
1

>  <MOLECULAR_WEIGHT>  (1) 
200.3178

>  <PRODUCTS>  (1) 
Vitafol Plus

>  <SALTS>  (1) 
Lauroyl chloride

>  <SECONDARY_ACCESSION_NUMBERS>  (1) 
EXPT01112; EXPT02006

>  <SMILES>  (1) 
CCCCCCCCCCCC(O)=O

>  <SYNONYMS>  (1) 
1-Undecanecarboxylic acid; ABL; C12 fatty acid; C12:0; Coconut oil fatty acids; DAO; Dodecanoic acid; Dodecoic acid; Dodecylcarboxylate; Dodecylic acid; Duodecyclic acid; Duodecylic acid; Laurins√§ure; Laurostearic acid; N-dodecanoic acid; Undecane-1-carboxylic acid; Vulvic acid

$$$$
