
     RDKit          2D

 72 71  0  0  1  0  0  0  0  0999 V2000
   -2.8579   -1.1962    0.0000 N   0  0  0  0  0  0  0  0  0  0  0  0
   -2.8579   -0.3712    0.0000 C   0  0  0  0  0  0  0  0  0  0  0  0
   -2.1434    0.0413    0.0000 C   0  0  0  0  0  0  0  0  0  0  0  0
   -1.4289   -0.3712    0.0000 C   0  0  0  0  0  0  0  0  0  0  0  0
   -0.7145    0.0413    0.0000 C   0  0  0  0  0  0  0  0  0  0  0  0
   -0.7145    0.8663    0.0000 O   0  0  0  0  0  0  0  0  0  0  0  0
    0.0000   -0.3712    0.0000 N   0  0  0  0  0  0  0  0  0  0  0  0
    0.7145    0.0413    0.0000 C   0  0  0  0  0  0  0  0  0  0  0  0
    0.7145    0.8663    0.0000 C   0  0  0  0  0  0  0  0  0  0  0  0
    1.4289   -0.3713    0.0000 C   0  0  0  0  0  0  0  0  0  0  0  0
    1.4289   -1.1963    0.0000 O   0  0  0  0  0  0  0  0  0  0  0  0
    2.1434    0.0412    0.0000 N   0  0  0  0  0  0  0  0  0  0  0  0
    2.8579   -0.3713    0.0000 C   0  0  0  0  0  0  0  0  0  0  0  0
    3.5724    0.0412    0.0000 C   0  0  0  0  0  0  0  0  0  0  0  0
    3.5724    0.8662    0.0000 O   0  0  0  0  0  0  0  0  0  0  0  0
    4.2868   -0.3713    0.0000 O   0  0  0  0  0  0  0  0  0  0  0  0
   -3.5724    0.0412    0.0000 C   0  0  0  0  0  0  0  0  0  0  0  0
   -3.5724    0.8663    0.0000 O   0  0  0  0  0  0  0  0  0  0  0  0
   -4.2868   -0.3713    0.0000 O   0  0  0  0  0  0  0  0  0  0  0  0
    5.7157    4.5788    0.0000 N   0  0  0  0  0  0  0  0  0  0  0  0
    5.7157    3.7538    0.0000 C   0  0  0  0  0  0  0  0  0  0  0  0
    5.0012    3.3413    0.0000 C   0  0  0  0  0  0  0  0  0  0  0  0
    4.2867    3.7538    0.0000 C   0  0  0  0  0  0  0  0  0  0  0  0
    3.5723    3.3413    0.0000 C   0  0  0  0  0  0  0  0  0  0  0  0
    3.5723    2.5163    0.0000 O   0  0  0  0  0  0  0  0  0  0  0  0
    2.8578    3.7538    0.0000 N   0  0  0  0  0  0  0  0  0  0  0  0
    2.1433    3.3413    0.0000 C   0  0  0  0  0  0  0  0  0  0  0  0
    2.1433    2.5163    0.0000 C   0  0  0  0  0  0  0  0  0  0  0  0
    1.4289    2.1038    0.0000 S   0  0  0  0  0  0  0  0  0  0  0  0
    1.4289    3.7539    0.0000 C   0  0  0  0  0  0  0  0  0  0  0  0
    1.4289    4.5789    0.0000 O   0  0  0  0  0  0  0  0  0  0  0  0
    0.7144    3.3414    0.0000 N   0  0  0  0  0  0  0  0  0  0  0  0
   -0.0001    3.7539    0.0000 C   0  0  0  0  0  0  0  0  0  0  0  0
   -0.7146    3.3414    0.0000 C   0  0  0  0  0  0  0  0  0  0  0  0
   -0.7146    2.5164    0.0000 O   0  0  0  0  0  0  0  0  0  0  0  0
   -1.4290    3.7539    0.0000 O   0  0  0  0  0  0  0  0  0  0  0  0
    6.4302    3.3414    0.0000 C   0  0  0  0  0  0  0  0  0  0  0  0
    6.4302    2.5163    0.0000 O   0  0  0  0  0  0  0  0  0  0  0  0
    7.1446    3.7539    0.0000 O   0  0  0  0  0  0  0  0  0  0  0  0
    1.4289    1.2788    0.0000 S   0  0  0  0  0  0  0  0  0  0  0  0
    0.0000    0.0000    0.0000 H   0  0  0  0  0  0  0  0  0  0  0  0
    0.0000    0.0000    0.0000 H   0  0  0  0  0  0  0  0  0  0  0  0
    0.0000    0.0000    0.0000 H   0  0  0  0  0  0  0  0  0  0  0  0
    0.0000    0.0000    0.0000 H   0  0  0  0  0  0  0  0  0  0  0  0
    0.0000    0.0000    0.0000 H   0  0  0  0  0  0  0  0  0  0  0  0
    0.0000    0.0000    0.0000 H   0  0  0  0  0  0  0  0  0  0  0  0
    0.0000    0.0000    0.0000 H   0  0  0  0  0  0  0  0  0  0  0  0
    0.0000    0.0000    0.0000 H   0  0  0  0  0  0  0  0  0  0  0  0
    0.0000    0.0000    0.0000 H   0  0  0  0  0  0  0  0  0  0  0  0
    0.0000    0.0000    0.0000 H   0  0  0  0  0  0  0  0  0  0  0  0
    0.0000    0.0000    0.0000 H   0  0  0  0  0  0  0  0  0  0  0  0
    0.0000    0.0000    0.0000 H   0  0  0  0  0  0  0  0  0  0  0  0
    0.0000    0.0000    0.0000 H   0  0  0  0  0  0  0  0  0  0  0  0
    0.0000    0.0000    0.0000 H   0  0  0  0  0  0  0  0  0  0  0  0
    0.0000    0.0000    0.0000 H   0  0  0  0  0  0  0  0  0  0  0  0
    0.0000    0.0000    0.0000 H   0  0  0  0  0  0  0  0  0  0  0  0
    0.0000    0.0000    0.0000 H   0  0  0  0  0  0  0  0  0  0  0  0
    0.0000    0.0000    0.0000 H   0  0  0  0  0  0  0  0  0  0  0  0
    0.0000    0.0000    0.0000 H   0  0  0  0  0  0  0  0  0  0  0  0
    0.0000    0.0000    0.0000 H   0  0  0  0  0  0  0  0  0  0  0  0
    0.0000    0.0000    0.0000 H   0  0  0  0  0  0  0  0  0  0  0  0
    0.0000    0.0000    0.0000 H   0  0  0  0  0  0  0  0  0  0  0  0
    0.0000    0.0000    0.0000 H   0  0  0  0  0  0  0  0  0  0  0  0
    0.0000    0.0000    0.0000 H   0  0  0  0  0  0  0  0  0  0  0  0
    0.0000    0.0000    0.0000 H   0  0  0  0  0  0  0  0  0  0  0  0
    0.0000    0.0000    0.0000 H   0  0  0  0  0  0  0  0  0  0  0  0
    0.0000    0.0000    0.0000 H   0  0  0  0  0  0  0  0  0  0  0  0
    0.0000    0.0000    0.0000 H   0  0  0  0  0  0  0  0  0  0  0  0
    0.0000    0.0000    0.0000 H   0  0  0  0  0  0  0  0  0  0  0  0
    0.0000    0.0000    0.0000 H   0  0  0  0  0  0  0  0  0  0  0  0
    0.0000    0.0000    0.0000 H   0  0  0  0  0  0  0  0  0  0  0  0
    0.0000    0.0000    0.0000 H   0  0  0  0  0  0  0  0  0  0  0  0
  2  1  1  6
  2  3  1  0
  2 17  1  0
  3  4  1  0
  4  5  1  0
  5  6  2  0
  5  7  1  0
  8  7  1  1
  8  9  1  0
  8 10  1  0
  9 40  1  0
 10 11  2  0
 10 12  1  0
 12 13  1  0
 13 14  1  0
 14 15  2  0
 14 16  1  0
 17 18  2  0
 17 19  1  0
 21 20  1  1
 21 22  1  0
 21 37  1  0
 22 23  1  0
 23 24  1  0
 24 25  2  0
 24 26  1  0
 27 26  1  6
 27 28  1  0
 27 30  1  0
 28 29  1  0
 30 31  2  0
 30 32  1  0
 32 33  1  0
 33 34  1  0
 34 35  2  0
 34 36  1  0
 37 38  2  0
 37 39  1  0
 40 29  1  0
  1 41  1  0
  1 42  1  0
  2 43  1  0
  3 44  1  0
  3 45  1  0
  4 46  1  0
  4 47  1  0
  7 48  1  0
  8 49  1  0
  9 50  1  0
  9 51  1  0
 12 52  1  0
 13 53  1  0
 13 54  1  0
 16 55  1  0
 19 56  1  0
 20 57  1  0
 20 58  1  0
 21 59  1  0
 22 60  1  0
 22 61  1  0
 23 62  1  0
 23 63  1  0
 26 64  1  0
 27 65  1  0
 28 66  1  0
 28 67  1  0
 32 68  1  0
 33 69  1  0
 33 70  1  0
 36 71  1  0
 39 72  1  0
M  END
>  <ALOGPS_LOGP>  (1) 
-3.60

>  <ALOGPS_LOGS>  (1) 
-3.18

>  <ALOGPS_SOLUBILITY>  (1) 
4.06e-01 g/l

>  <DATABASE_ID>  (1) 
DB03310

>  <DATABASE_NAME>  (1) 
drugbank

>  <DRUGBANK_ID>  (1) 
DB03310

>  <DRUG_GROUPS>  (1) 
approved; experimental

>  <EXACT_MASS>  (1) 
612.151961898

>  <FORMULA>  (1) 
C20H32N6O12S2

>  <GENERIC_NAME>  (1) 
Glutathione disulfide

>  <INCHI_IDENTIFIER>  (1) 
InChI=1S/C20H32N6O12S2/c21-9(19(35)36)1-3-13(27)25-11(17(33)23-5-15(29)30)7-39-40-8-12(18(34)24-6-16(31)32)26-14(28)4-2-10(22)20(37)38/h9-12H,1-8,21-22H2,(H,23,33)(H,24,34)(H,25,27)(H,26,28)(H,29,30)(H,31,32)(H,35,36)(H,37,38)/t9-,10-,11-,12-/m0/s1

>  <INCHI_KEY>  (1) 
YPZRWBKMTBYPTK-BJDJZHNGSA-N

>  <JCHEM_ACCEPTOR_COUNT>  (1) 
14

>  <JCHEM_AVERAGE_POLARIZABILITY>  (1) 
58.467045699463156

>  <JCHEM_BIOAVAILABILITY>  (1) 
0

>  <JCHEM_DONOR_COUNT>  (1) 
10

>  <JCHEM_FORMAL_CHARGE>  (1) 
0

>  <JCHEM_GHOSE_FILTER>  (1) 
0

>  <JCHEM_IUPAC>  (1) 
(2S)-2-amino-4-{[(1R)-2-{[(2R)-2-[(4S)-4-amino-4-carboxybutanamido]-2-[(carboxymethyl)carbamoyl]ethyl]disulfanyl}-1-[(carboxymethyl)carbamoyl]ethyl]carbamoyl}butanoic acid

>  <JCHEM_LOGP>  (1) 
-10.109054127323455

>  <JCHEM_MDDR_LIKE_RULE>  (1) 
0

>  <JCHEM_NUMBER_OF_RINGS>  (1) 
0

>  <JCHEM_PHYSIOLOGICAL_CHARGE>  (1) 
-2

>  <JCHEM_PKA>  (1) 
2.0279192452272095

>  <JCHEM_PKA_STRONGEST_ACIDIC>  (1) 
1.4383679148014101

>  <JCHEM_PKA_STRONGEST_BASIC>  (1) 
9.613061090727257

>  <JCHEM_POLAR_SURFACE_AREA>  (1) 
317.64000000000004

>  <JCHEM_REFRACTIVITY>  (1) 
136.65439999999995

>  <JCHEM_ROTATABLE_BOND_COUNT>  (1) 
21

>  <JCHEM_RULE_OF_FIVE>  (1) 
0

>  <JCHEM_TRADITIONAL_IUPAC>  (1) 
glutathione disulfide

>  <JCHEM_VEBER_RULE>  (1) 
0

>  <MOLECULAR_WEIGHT>  (1) 
612.631

>  <PRODUCTS>  (1) 
Amo Endosol Extra; Bss Plus; Navstel

>  <SECONDARY_ACCESSION_NUMBERS>  (1) 
EXPT01575; DB09544

>  <SMILES>  (1) 
N[C@@H](CCC(=O)N[C@@H](CSSC[C@H](NC(=O)CC[C@H](N)C(O)=O)C(=O)NCC(O)=O)C(=O)NCC(O)=O)C(O)=O

>  <SYNONYMS>  (1) 
Glutathione disulphide; GSSG; Oxidized glutathione; Oxiglutatione

$$$$
