4840
     RDKit          2D

 26 27  0  0  0  0  0  0  0  0999 V2000
    3.5220    0.1136    0.0000 N   0  0  0  0  0  0  0  0  0  0  0  0
    2.0930    0.1136    0.0000 N   0  0  0  0  0  0  0  0  0  0  0  0
    2.8075   -1.1239    0.0000 N   0  0  0  0  0  0  0  0  0  0  0  0
    4.2364    1.3511    0.0000 C   0  0  0  0  0  0  0  0  0  0  0  0
    3.5220    0.9386    0.0000 C   0  0  0  0  0  0  0  0  0  0  0  0
    4.2364   -0.2989    0.0000 C   0  0  0  0  0  0  0  0  0  0  0  0
    4.9509    0.9386    0.0000 C   0  0  0  0  0  0  0  0  0  0  0  0
    4.9509    0.1136    0.0000 C   0  0  0  0  0  0  0  0  0  0  0  0
    5.6884    1.3797    0.0000 C   0  0  0  0  0  0  0  0  0  0  0  0
    5.6884   -0.3275    0.0000 C   0  0  0  0  0  0  0  0  0  0  0  0
    2.8075   -0.2989    0.0000 C   0  0  0  0  0  0  0  0  0  0  0  0
    6.4359    0.9558    0.0000 C   0  0  0  0  0  0  0  0  0  0  0  0
    6.4359    0.0964    0.0000 C   0  0  0  0  0  0  0  0  0  0  0  0
    0.0000    0.0000    0.0000 H   0  0  0  0  0  0  0  0  0  0  0  0
    0.0000    0.0000    0.0000 H   0  0  0  0  0  0  0  0  0  0  0  0
    0.0000    0.0000    0.0000 H   0  0  0  0  0  0  0  0  0  0  0  0
    0.0000    0.0000    0.0000 H   0  0  0  0  0  0  0  0  0  0  0  0
    0.0000    0.0000    0.0000 H   0  0  0  0  0  0  0  0  0  0  0  0
    0.0000    0.0000    0.0000 H   0  0  0  0  0  0  0  0  0  0  0  0
    0.0000    0.0000    0.0000 H   0  0  0  0  0  0  0  0  0  0  0  0
    0.0000    0.0000    0.0000 H   0  0  0  0  0  0  0  0  0  0  0  0
    0.0000    0.0000    0.0000 H   0  0  0  0  0  0  0  0  0  0  0  0
    0.0000    0.0000    0.0000 H   0  0  0  0  0  0  0  0  0  0  0  0
    0.0000    0.0000    0.0000 H   0  0  0  0  0  0  0  0  0  0  0  0
    0.0000    0.0000    0.0000 H   0  0  0  0  0  0  0  0  0  0  0  0
    0.0000    0.0000    0.0000 H   0  0  0  0  0  0  0  0  0  0  0  0
  1  5  1  0
  1  6  1  0
  1 11  1  0
  2 11  1  0
  3 11  2  3
  4  5  1  0
  4  7  1  0
  6  8  1  0
  7  8  2  0
  7  9  1  0
  8 10  1  0
  9 12  2  0
 10 13  2  0
 12 13  1  0
  2 14  1  0
  2 15  1  0
  3 16  1  0
  4 17  1  0
  4 18  1  0
  5 19  1  0
  5 20  1  0
  6 21  1  0
  6 22  1  0
  9 23  1  0
 10 24  1  0
 12 25  1  0
 13 26  1  0
M  END
>  <ALOGPS_LOGP>  (1) 
0.58

>  <ALOGPS_LOGS>  (1) 
-2.32

>  <ALOGPS_SOLUBILITY>  (1) 
8.42e-01 g/l

>  <DATABASE_ID>  (1) 
DB04840

>  <DATABASE_NAME>  (1) 
drugbank

>  <DRUGBANK_ID>  (1) 
DB04840

>  <DRUG_GROUPS>  (1) 
approved; investigational

>  <EXACT_MASS>  (1) 
175.110947431

>  <FORMULA>  (1) 
C10H13N3

>  <GENERIC_NAME>  (1) 
Debrisoquin

>  <INCHI_IDENTIFIER>  (1) 
InChI=1S/C10H13N3/c11-10(12)13-6-5-8-3-1-2-4-9(8)7-13/h1-4H,5-7H2,(H3,11,12)

>  <INCHI_KEY>  (1) 
JWPGJSVJDAJRLW-UHFFFAOYSA-N

>  <INTERNATIONAL_BRANDS>  (1) 
Bonipress; Declinax; Tendor

>  <JCHEM_ACCEPTOR_COUNT>  (1) 
3

>  <JCHEM_AVERAGE_POLARIZABILITY>  (1) 
19.475173029334815

>  <JCHEM_BIOAVAILABILITY>  (1) 
1

>  <JCHEM_DONOR_COUNT>  (1) 
2

>  <JCHEM_FORMAL_CHARGE>  (1) 
0

>  <JCHEM_GHOSE_FILTER>  (1) 
1

>  <JCHEM_IUPAC>  (1) 
1,2,3,4-tetrahydroisoquinoline-2-carboximidamide

>  <JCHEM_LOGP>  (1) 
1.0671080733333334

>  <JCHEM_MDDR_LIKE_RULE>  (1) 
0

>  <JCHEM_NUMBER_OF_RINGS>  (1) 
2

>  <JCHEM_PHYSIOLOGICAL_CHARGE>  (1) 
1

>  <JCHEM_PKA_STRONGEST_BASIC>  (1) 
12.46939105774148

>  <JCHEM_POLAR_SURFACE_AREA>  (1) 
53.11

>  <JCHEM_REFRACTIVITY>  (1) 
63.850300000000004

>  <JCHEM_ROTATABLE_BOND_COUNT>  (1) 
0

>  <JCHEM_RULE_OF_FIVE>  (1) 
1

>  <JCHEM_TRADITIONAL_IUPAC>  (1) 
debrisoquin

>  <JCHEM_VEBER_RULE>  (1) 
0

>  <MOLECULAR_WEIGHT>  (1) 
175.2303

>  <SALTS>  (1) 
Debrisoquin sulfate

>  <SMILES>  (1) 
NC(=N)N1CCC2=CC=CC=C2C1

>  <SYNONYMS>  (1) 
Debrisochinum; Debrisoquina; Debrisoquine; Debrisoquinum; Isocaramidine

$$$$
