
     RDKit          2D

 58 60  0  0  1  0  0  0  0  0999 V2000
   -8.5737   -4.9499    0.0000 N   0  0  0  0  0  0  0  0  0  0  0  0
   -7.8592   -4.5375    0.0000 C   0  0  0  0  0  0  0  0  0  0  0  0
   -7.8592   -3.7125    0.0000 C   0  0  0  0  0  0  0  0  0  0  0  0
   -7.1447   -3.3000    0.0000 C   0  0  0  0  0  0  0  0  0  0  0  0
   -6.4302   -3.7125    0.0000 C   0  0  0  0  0  0  0  0  0  0  0  0
   -6.4302   -4.5375    0.0000 C   0  0  0  0  0  0  0  0  0  0  0  0
   -7.1447   -4.9499    0.0000 C   0  0  0  0  0  0  0  0  0  0  0  0
   -5.7158   -3.3000    0.0000 C   0  0  0  0  0  0  0  0  0  0  0  0
   -5.7158   -2.4749    0.0000 O   0  0  0  0  0  0  0  0  0  0  0  0
   -5.0012   -3.7125    0.0000 N   0  0  0  0  0  0  0  0  0  0  0  0
   -4.2868   -3.3000    0.0000 C   0  0  0  0  0  0  0  0  0  0  0  0
   -3.5724   -3.7125    0.0000 C   0  0  0  0  0  0  0  0  0  0  0  0
   -2.8579   -3.3000    0.0000 C   0  0  0  0  0  0  0  0  0  0  0  0
   -2.1434   -3.7125    0.0000 C   0  0  0  0  0  0  0  0  0  0  0  0
   -1.4289   -3.3000    0.0000 O   0  0  0  0  0  0  0  0  0  0  0  0
   -2.1434   -4.5375    0.0000 O   0  0  0  0  0  0  0  0  0  0  0  0
   -4.2868   -2.4749    0.0000 C   0  0  0  0  0  0  0  0  0  0  0  0
   -3.5724   -2.0625    0.0000 O   0  0  0  0  0  0  0  0  0  0  0  0
   -5.0012   -2.0625    0.0000 O   0  0  0  0  0  0  0  0  0  0  0  0
   -9.2881   -4.5374    0.0000 C   0  0  0  0  0  0  0  0  0  0  0  0
  -10.0026   -4.9499    0.0000 C   0  0  0  0  0  0  0  0  0  0  0  0
  -10.7171   -4.5374    0.0000 N   0  0  0  0  0  0  0  0  0  0  0  0
  -11.4316   -4.9499    0.0000 C   0  0  0  0  0  0  0  0  0  0  0  0
  -11.4315   -5.7749    0.0000 C   0  0  0  0  0  0  0  0  0  0  0  0
  -10.7171   -6.1875    0.0000 N   0  0  0  0  0  0  0  0  0  0  0  0
  -10.0026   -5.7750    0.0000 C   0  0  0  0  0  0  0  0  0  0  0  0
  -12.1463   -4.5375    0.0000 C   0  0  0  0  0  0  0  0  0  0  0  0
  -12.8606   -4.9502    0.0000 N   0  0  0  0  0  0  0  0  0  0  0  0
  -12.8606   -5.7751    0.0000 C   0  0  0  0  0  0  0  0  0  0  0  0
  -12.1460   -6.1876    0.0000 N   0  0  0  0  0  0  0  0  0  0  0  0
  -13.5750   -6.1877    0.0000 N   0  0  0  0  0  0  0  0  0  0  0  0
  -12.1464   -3.7125    0.0000 O   0  0  0  0  0  0  0  0  0  0  0  0
  -10.7171   -3.7124    0.0000 C   0  0  0  0  0  0  0  0  0  0  0  0
    0.0000    0.0000    0.0000 H   0  0  0  0  0  0  0  0  0  0  0  0
    0.0000    0.0000    0.0000 H   0  0  0  0  0  0  0  0  0  0  0  0
    0.0000    0.0000    0.0000 H   0  0  0  0  0  0  0  0  0  0  0  0
    0.0000    0.0000    0.0000 H   0  0  0  0  0  0  0  0  0  0  0  0
    0.0000    0.0000    0.0000 H   0  0  0  0  0  0  0  0  0  0  0  0
    0.0000    0.0000    0.0000 H   0  0  0  0  0  0  0  0  0  0  0  0
    0.0000    0.0000    0.0000 H   0  0  0  0  0  0  0  0  0  0  0  0
    0.0000    0.0000    0.0000 H   0  0  0  0  0  0  0  0  0  0  0  0
    0.0000    0.0000    0.0000 H   0  0  0  0  0  0  0  0  0  0  0  0
    0.0000    0.0000    0.0000 H   0  0  0  0  0  0  0  0  0  0  0  0
    0.0000    0.0000    0.0000 H   0  0  0  0  0  0  0  0  0  0  0  0
    0.0000    0.0000    0.0000 H   0  0  0  0  0  0  0  0  0  0  0  0
    0.0000    0.0000    0.0000 H   0  0  0  0  0  0  0  0  0  0  0  0
    0.0000    0.0000    0.0000 H   0  0  0  0  0  0  0  0  0  0  0  0
    0.0000    0.0000    0.0000 H   0  0  0  0  0  0  0  0  0  0  0  0
    0.0000    0.0000    0.0000 H   0  0  0  0  0  0  0  0  0  0  0  0
    0.0000    0.0000    0.0000 H   0  0  0  0  0  0  0  0  0  0  0  0
    0.0000    0.0000    0.0000 H   0  0  0  0  0  0  0  0  0  0  0  0
    0.0000    0.0000    0.0000 H   0  0  0  0  0  0  0  0  0  0  0  0
    0.0000    0.0000    0.0000 H   0  0  0  0  0  0  0  0  0  0  0  0
    0.0000    0.0000    0.0000 H   0  0  0  0  0  0  0  0  0  0  0  0
    0.0000    0.0000    0.0000 H   0  0  0  0  0  0  0  0  0  0  0  0
    0.0000    0.0000    0.0000 H   0  0  0  0  0  0  0  0  0  0  0  0
    0.0000    0.0000    0.0000 H   0  0  0  0  0  0  0  0  0  0  0  0
    0.0000    0.0000    0.0000 H   0  0  0  0  0  0  0  0  0  0  0  0
  1  2  1  0
  2  3  2  0
  3  4  1  0
  4  5  2  0
  5  6  1  0
  6  7  2  0
  2  7  1  0
  5  8  1  0
  8  9  2  0
  8 10  1  0
 11 10  1  1
 11 12  1  0
 12 13  1  0
 13 14  1  0
 14 15  1  0
 14 16  2  0
 11 17  1  0
 17 18  1  0
 17 19  2  0
  1 20  1  0
 20 21  1  0
 23 24  2  0
 21 26  1  0
 23 27  1  0
 24 25  1  0
 25 26  1  0
 29 30  1  0
 24 30  1  0
 29 31  1  0
 27 32  2  0
 22 23  1  0
 21 22  1  0
 22 33  1  0
 27 28  1  0
 28 29  2  0
  1 34  1  0
  3 35  1  0
  4 36  1  0
  6 37  1  0
  7 38  1  0
 10 39  1  0
 11 40  1  0
 12 41  1  0
 12 42  1  0
 13 43  1  0
 13 44  1  0
 15 45  1  0
 18 46  1  0
 20 47  1  0
 20 48  1  0
 21 49  1  0
 25 50  1  0
 26 51  1  0
 26 52  1  0
 30 53  1  0
 31 54  1  0
 31 55  1  0
 33 56  1  0
 33 57  1  0
 33 58  1  0
M  END
>  <ALOGPS_LOGP>  (1) 
-0.58

>  <ALOGPS_LOGS>  (1) 
-3.14

>  <ALOGPS_SOLUBILITY>  (1) 
3.32e-01 g/l

>  <DATABASE_ID>  (1) 
DB04789

>  <DATABASE_NAME>  (1) 
drugbank

>  <DRUGBANK_ID>  (1) 
DB04789

>  <DRUG_GROUPS>  (1) 
approved; nutraceutical

>  <EXACT_MASS>  (1) 
459.186631553

>  <FORMULA>  (1) 
C20H25N7O6

>  <GENERIC_NAME>  (1) 
5-methyltetrahydrofolic acid

>  <INCHI_IDENTIFIER>  (1) 
InChI=1S/C20H25N7O6/c1-27-12(9-23-16-15(27)18(31)26-20(21)25-16)8-22-11-4-2-10(3-5-11)17(30)24-13(19(32)33)6-7-14(28)29/h2-5,12-13,22H,6-9H2,1H3,(H,24,30)(H,28,29)(H,32,33)(H4,21,23,25,26,31)/t12?,13-/m0/s1

>  <INCHI_KEY>  (1) 
ZNOVTXRBGFNYRX-ABLWVSNPSA-N

>  <INTERNATIONAL_BRANDS>  (1) 
Prefolic A

>  <JCHEM_ACCEPTOR_COUNT>  (1) 
12

>  <JCHEM_ATOM_COUNT>  (1) 
58

>  <JCHEM_AVERAGE_POLARIZABILITY>  (1) 
46.191147111994255

>  <JCHEM_BIOAVAILABILITY>  (1) 
0

>  <JCHEM_DONOR_COUNT>  (1) 
7

>  <JCHEM_FORMAL_CHARGE>  (1) 
0

>  <JCHEM_GHOSE_FILTER>  (1) 
0

>  <JCHEM_IUPAC>  (1) 
(2S)-2-[(4-{[(2-amino-5-methyl-4-oxo-1,4,5,6,7,8-hexahydropteridin-6-yl)methyl]amino}phenyl)formamido]pentanedioic acid

>  <JCHEM_LOGP>  (1) 
-1.872632241674932

>  <JCHEM_MDDR_LIKE_RULE>  (1) 
1

>  <JCHEM_NUMBER_OF_RINGS>  (1) 
3

>  <JCHEM_PHYSIOLOGICAL_CHARGE>  (1) 
-2

>  <JCHEM_PKA>  (1) 
4.213036453102578

>  <JCHEM_PKA_STRONGEST_ACIDIC>  (1) 
3.482708448720173

>  <JCHEM_PKA_STRONGEST_BASIC>  (1) 
2.8308279831825462

>  <JCHEM_POLAR_SURFACE_AREA>  (1) 
198.48000000000002

>  <JCHEM_REFRACTIVITY>  (1) 
126.68129999999996

>  <JCHEM_ROTATABLE_BOND_COUNT>  (1) 
9

>  <JCHEM_RULE_OF_FIVE>  (1) 
0

>  <JCHEM_TRADITIONAL_IUPAC>  (1) 
(2S)-2-[(4-{[(2-amino-5-methyl-4-oxo-1,6,7,8-tetrahydropteridin-6-yl)methyl]amino}phenyl)formamido]pentanedioic acid

>  <JCHEM_VEBER_RULE>  (1) 
0

>  <MOLECULAR_WEIGHT>  (1) 
459.463

>  <PRODUCTS>  (1) 
Prenate Elite; Prenate Essential; Sodium Polysulthionate, 5-mthf; Xizflus

>  <SMILES>  (1) 
CN1C(CNC2=CC=C(C=C2)C(=O)N[C@@H](CCC(O)=O)C(O)=O)CNC2=C1C(=O)N=C(N)N2

>  <SYNONYMS>  (1) 
5-Methyl-5,6,7,8-tetrahydrofolic acid; 5-Methyl-5,6,7,8-tetrahydropteroyl-L-glutamic acid; 5-methyltetrahydrofolate; 5-Methyltetrahydropteroyl monoglutamate; 5-Methyltetrahydropteroylglutamic acid; N-Methyltetrahydrofolate; N-Methyltetrahydrofolic acid; N5-Methyltetrahydrofolate; N5-Methyltetrahydrofolic acid; N5-Methyltetrahydropteroylglutamate

$$$$
