
     RDKit          2D

 50 52  0  0  0  0  0  0  0  0999 V2000
    3.0791    3.9683    0.0000 Cl  0  0  0  0  0  0  0  0  0  0  0  0
    4.5080   -1.8068    0.0000 O   0  0  0  0  0  0  0  0  0  0  0  0
    3.0791   -3.4568    0.0000 O   0  0  0  0  0  0  0  0  0  0  0  0
    3.7935    1.9058    0.0000 C   0  0  0  0  0  0  0  0  0  0  0  0
    4.5080    1.4933    0.0000 C   0  0  0  0  0  0  0  0  0  0  0  0
    3.7935    2.7308    0.0000 C   0  0  0  0  0  0  0  0  0  0  0  0
    4.5080    0.6683    0.0000 C   0  0  0  0  0  0  0  0  0  0  0  0
    3.0791    1.4933    0.0000 C   0  0  0  0  0  0  0  0  0  0  0  0
    5.2224    1.9058    0.0000 C   0  0  0  0  0  0  0  0  0  0  0  0
    5.2224    0.2558    0.0000 C   0  0  0  0  0  0  0  0  0  0  0  0
    3.7935    0.2558    0.0000 C   0  0  0  0  0  0  0  0  0  0  0  0
    3.0791    3.1433    0.0000 C   0  0  0  0  0  0  0  0  0  0  0  0
    3.0791    0.6683    0.0000 C   0  0  0  0  0  0  0  0  0  0  0  0
    2.3645    1.9058    0.0000 C   0  0  0  0  0  0  0  0  0  0  0  0
    5.2224    2.7308    0.0000 C   0  0  0  0  0  0  0  0  0  0  0  0
    5.9370    1.4933    0.0000 C   0  0  0  0  0  0  0  0  0  0  0  0
    5.2224   -0.5693    0.0000 C   0  0  0  0  0  0  0  0  0  0  0  0
    3.7935   -0.5693    0.0000 C   0  0  0  0  0  0  0  0  0  0  0  0
    4.5080   -0.9818    0.0000 C   0  0  0  0  0  0  0  0  0  0  0  0
    2.3645    0.2558    0.0000 C   0  0  0  0  0  0  0  0  0  0  0  0
    1.6500    1.4933    0.0000 C   0  0  0  0  0  0  0  0  0  0  0  0
    5.9370    3.1433    0.0000 C   0  0  0  0  0  0  0  0  0  0  0  0
    6.6515    1.9058    0.0000 C   0  0  0  0  0  0  0  0  0  0  0  0
    1.6500    0.6683    0.0000 C   0  0  0  0  0  0  0  0  0  0  0  0
    6.6515    2.7308    0.0000 C   0  0  0  0  0  0  0  0  0  0  0  0
    3.7935   -2.2193    0.0000 C   0  0  0  0  0  0  0  0  0  0  0  0
    3.7935   -3.0443    0.0000 C   0  0  0  0  0  0  0  0  0  0  0  0
    0.0000    0.0000    0.0000 H   0  0  0  0  0  0  0  0  0  0  0  0
    0.0000    0.0000    0.0000 H   0  0  0  0  0  0  0  0  0  0  0  0
    0.0000    0.0000    0.0000 H   0  0  0  0  0  0  0  0  0  0  0  0
    0.0000    0.0000    0.0000 H   0  0  0  0  0  0  0  0  0  0  0  0
    0.0000    0.0000    0.0000 H   0  0  0  0  0  0  0  0  0  0  0  0
    0.0000    0.0000    0.0000 H   0  0  0  0  0  0  0  0  0  0  0  0
    0.0000    0.0000    0.0000 H   0  0  0  0  0  0  0  0  0  0  0  0
    0.0000    0.0000    0.0000 H   0  0  0  0  0  0  0  0  0  0  0  0
    0.0000    0.0000    0.0000 H   0  0  0  0  0  0  0  0  0  0  0  0
    0.0000    0.0000    0.0000 H   0  0  0  0  0  0  0  0  0  0  0  0
    0.0000    0.0000    0.0000 H   0  0  0  0  0  0  0  0  0  0  0  0
    0.0000    0.0000    0.0000 H   0  0  0  0  0  0  0  0  0  0  0  0
    0.0000    0.0000    0.0000 H   0  0  0  0  0  0  0  0  0  0  0  0
    0.0000    0.0000    0.0000 H   0  0  0  0  0  0  0  0  0  0  0  0
    0.0000    0.0000    0.0000 H   0  0  0  0  0  0  0  0  0  0  0  0
    0.0000    0.0000    0.0000 H   0  0  0  0  0  0  0  0  0  0  0  0
    0.0000    0.0000    0.0000 H   0  0  0  0  0  0  0  0  0  0  0  0
    0.0000    0.0000    0.0000 H   0  0  0  0  0  0  0  0  0  0  0  0
    0.0000    0.0000    0.0000 H   0  0  0  0  0  0  0  0  0  0  0  0
    0.0000    0.0000    0.0000 H   0  0  0  0  0  0  0  0  0  0  0  0
    0.0000    0.0000    0.0000 H   0  0  0  0  0  0  0  0  0  0  0  0
    0.0000    0.0000    0.0000 H   0  0  0  0  0  0  0  0  0  0  0  0
    0.0000    0.0000    0.0000 H   0  0  0  0  0  0  0  0  0  0  0  0
  1 12  1  0
  2 19  1  0
  2 26  1  0
  3 27  1  0
  4  5  2  0
  4  6  1  0
  4  8  1  0
  5  7  1  0
  5  9  1  0
  6 12  1  0
  7 10  2  0
  7 11  1  0
  8 13  2  0
  8 14  1  0
  9 15  2  0
  9 16  1  0
 10 17  1  0
 11 18  2  0
 13 20  1  0
 14 21  2  0
 15 22  1  0
 16 23  2  0
 17 19  2  0
 18 19  1  0
 20 24  2  0
 21 24  1  0
 22 25  2  0
 23 25  1  0
 26 27  1  0
  3 28  1  0
  6 29  1  0
  6 30  1  0
 10 31  1  0
 11 32  1  0
 12 33  1  0
 12 34  1  0
 13 35  1  0
 14 36  1  0
 15 37  1  0
 16 38  1  0
 17 39  1  0
 18 40  1  0
 20 41  1  0
 21 42  1  0
 22 43  1  0
 23 44  1  0
 24 45  1  0
 25 46  1  0
 26 47  1  0
 26 48  1  0
 27 49  1  0
 27 50  1  0
M  END
>  <ALOGPS_LOGP>  (1) 
5.70

>  <ALOGPS_LOGS>  (1) 
-5.86

>  <ALOGPS_SOLUBILITY>  (1) 
5.26e-04 g/l

>  <DATABASE_ID>  (1) 
DB04938

>  <DATABASE_NAME>  (1) 
drugbank

>  <DRUGBANK_ID>  (1) 
DB04938

>  <DRUG_GROUPS>  (1) 
approved

>  <EXACT_MASS>  (1) 
378.138657687

>  <FORMULA>  (1) 
C24H23ClO2

>  <GENERIC_NAME>  (1) 
Ospemifene

>  <INCHI_IDENTIFIER>  (1) 
InChI=1S/C24H23ClO2/c25-16-15-23(19-7-3-1-4-8-19)24(20-9-5-2-6-10-20)21-11-13-22(14-12-21)27-18-17-26/h1-14,26H,15-18H2/b24-23-

>  <INCHI_KEY>  (1) 
LUMKNAVTFCDUIE-VHXPQNKSSA-N

>  <JCHEM_ACCEPTOR_COUNT>  (1) 
2

>  <JCHEM_AVERAGE_POLARIZABILITY>  (1) 
41.96786878695811

>  <JCHEM_BIOAVAILABILITY>  (1) 
1

>  <JCHEM_DONOR_COUNT>  (1) 
1

>  <JCHEM_FORMAL_CHARGE>  (1) 
0

>  <JCHEM_GHOSE_FILTER>  (1) 
1

>  <JCHEM_IUPAC>  (1) 
2-{4-[(1Z)-4-chloro-1,2-diphenylbut-1-en-1-yl]phenoxy}ethan-1-ol

>  <JCHEM_LOGP>  (1) 
5.560388660666667

>  <JCHEM_MDDR_LIKE_RULE>  (1) 
1

>  <JCHEM_NUMBER_OF_RINGS>  (1) 
3

>  <JCHEM_PHYSIOLOGICAL_CHARGE>  (1) 
0

>  <JCHEM_PKA_STRONGEST_ACIDIC>  (1) 
15.10217309750228

>  <JCHEM_PKA_STRONGEST_BASIC>  (1) 
-2.754109487152501

>  <JCHEM_POLAR_SURFACE_AREA>  (1) 
29.46

>  <JCHEM_REFRACTIVITY>  (1) 
121.68370000000003

>  <JCHEM_ROTATABLE_BOND_COUNT>  (1) 
8

>  <JCHEM_RULE_OF_FIVE>  (1) 
0

>  <JCHEM_TRADITIONAL_IUPAC>  (1) 
ospemifene

>  <JCHEM_VEBER_RULE>  (1) 
1

>  <MOLECULAR_WEIGHT>  (1) 
378.891

>  <PRODUCTS>  (1) 
Osphena

>  <SMILES>  (1) 
OCCOC1=CC=C(C=C1)C(=C(\CCCl)C1=CC=CC=C1)\C1=CC=CC=C1

$$$$
