
     RDKit          2D

 39 39  0  0  1  0  0  0  0  0999 V2000
    3.1095    1.5011    0.0000 O   0  0  0  0  0  0  0  0  0  0  0  0
    2.0930    0.7867    0.0000 O   0  0  0  0  0  0  0  0  0  0  0  0
    3.5220   -1.6884    0.0000 O   0  0  0  0  0  0  0  0  0  0  0  0
    2.0930   -0.8634    0.0000 O   0  0  0  0  0  0  0  0  0  0  0  0
    4.7595    1.5011    0.0000 O   0  0  0  0  0  0  0  0  0  0  0  0
    7.0944   -0.4509    0.0000 O   0  0  0  0  0  0  0  0  0  0  0  0
    6.3799    0.7867    0.0000 O   0  0  0  0  0  0  0  0  0  0  0  0
    4.9509   -0.8634    0.0000 N   0  0  0  0  0  0  0  0  0  0  0  0
    3.5220    0.7867    0.0000 C   0  0  0  0  0  0  0  0  0  0  0  0
    4.2365   -0.4509    0.0000 C   0  0  0  0  0  0  0  0  0  0  0  0
    4.2365    0.3741    0.0000 C   0  0  0  0  0  0  0  0  0  0  0  0
    2.8075    0.3741    0.0000 C   0  0  0  0  0  0  0  0  0  0  0  0
    3.5220   -0.8634    0.0000 C   0  0  0  0  0  0  0  0  0  0  0  0
    2.8075   -0.4509    0.0000 C   0  0  0  0  0  0  0  0  0  0  0  0
    3.9345    1.5011    0.0000 C   0  0  0  0  0  0  0  0  0  0  0  0
    5.6655   -0.4509    0.0000 C   0  0  0  0  0  0  0  0  0  0  0  0
    6.3799   -0.8634    0.0000 C   0  0  0  0  0  0  0  0  0  0  0  0
    5.6655    0.3741    0.0000 C   0  0  0  0  0  0  0  0  0  0  0  0
    0.0000    0.0000    0.0000 H   0  0  0  0  0  0  0  0  0  0  0  0
    0.0000    0.0000    0.0000 H   0  0  0  0  0  0  0  0  0  0  0  0
    0.0000    0.0000    0.0000 H   0  0  0  0  0  0  0  0  0  0  0  0
    0.0000    0.0000    0.0000 H   0  0  0  0  0  0  0  0  0  0  0  0
    0.0000    0.0000    0.0000 H   0  0  0  0  0  0  0  0  0  0  0  0
    0.0000    0.0000    0.0000 H   0  0  0  0  0  0  0  0  0  0  0  0
    0.0000    0.0000    0.0000 H   0  0  0  0  0  0  0  0  0  0  0  0
    0.0000    0.0000    0.0000 H   0  0  0  0  0  0  0  0  0  0  0  0
    0.0000    0.0000    0.0000 H   0  0  0  0  0  0  0  0  0  0  0  0
    0.0000    0.0000    0.0000 H   0  0  0  0  0  0  0  0  0  0  0  0
    0.0000    0.0000    0.0000 H   0  0  0  0  0  0  0  0  0  0  0  0
    0.0000    0.0000    0.0000 H   0  0  0  0  0  0  0  0  0  0  0  0
    0.0000    0.0000    0.0000 H   0  0  0  0  0  0  0  0  0  0  0  0
    0.0000    0.0000    0.0000 H   0  0  0  0  0  0  0  0  0  0  0  0
    0.0000    0.0000    0.0000 H   0  0  0  0  0  0  0  0  0  0  0  0
    0.0000    0.0000    0.0000 H   0  0  0  0  0  0  0  0  0  0  0  0
    0.0000    0.0000    0.0000 H   0  0  0  0  0  0  0  0  0  0  0  0
    0.0000    0.0000    0.0000 H   0  0  0  0  0  0  0  0  0  0  0  0
    0.0000    0.0000    0.0000 H   0  0  0  0  0  0  0  0  0  0  0  0
    0.0000    0.0000    0.0000 H   0  0  0  0  0  0  0  0  0  0  0  0
    0.0000    0.0000    0.0000 H   0  0  0  0  0  0  0  0  0  0  0  0
  9  1  1  6
 12  2  1  6
 13  3  1  6
 14  4  1  1
  5 15  1  0
  6 17  1  0
  7 18  1  0
 10  8  1  1
  8 16  1  0
  9 11  1  0
  9 12  1  0
  9 15  1  0
 10 11  1  0
 10 13  1  0
 12 14  1  0
 13 14  1  0
 16 17  1  0
 16 18  1  0
  1 19  1  0
  2 20  1  0
  3 21  1  0
  4 22  1  0
  5 23  1  0
  6 24  1  0
  7 25  1  0
  8 26  1  0
 10 27  1  0
 11 28  1  0
 11 29  1  0
 12 30  1  0
 13 31  1  0
 14 32  1  0
 15 33  1  0
 15 34  1  0
 16 35  1  0
 17 36  1  0
 17 37  1  0
 18 38  1  0
 18 39  1  0
M  END
>  <ALOGPS_LOGP>  (1) 
-2.34

>  <ALOGPS_LOGS>  (1) 
-0.15

>  <ALOGPS_SOLUBILITY>  (1) 
1.90e+02 g/l

>  <DATABASE_ID>  (1) 
DB04878

>  <DATABASE_NAME>  (1) 
drugbank

>  <DRUGBANK_ID>  (1) 
DB04878

>  <DRUG_GROUPS>  (1) 
approved; investigational

>  <EXACT_MASS>  (1) 
267.131802031

>  <FORMULA>  (1) 
C10H21NO7

>  <GENERIC_NAME>  (1) 
Voglibose

>  <INCHI_IDENTIFIER>  (1) 
InChI=1S/C10H21NO7/c12-2-5(3-13)11-6-1-10(18,4-14)9(17)8(16)7(6)15/h5-9,11-18H,1-4H2/t6-,7-,8+,9-,10-/m0/s1

>  <INCHI_KEY>  (1) 
FZNCGRZWXLXZSZ-CIQUZCHMSA-N

>  <INTERNATIONAL_BRANDS>  (1) 
Basen; Volix

>  <JCHEM_ACCEPTOR_COUNT>  (1) 
8

>  <JCHEM_AVERAGE_POLARIZABILITY>  (1) 
26.020633135118675

>  <JCHEM_BIOAVAILABILITY>  (1) 
1

>  <JCHEM_DONOR_COUNT>  (1) 
8

>  <JCHEM_FORMAL_CHARGE>  (1) 
0

>  <JCHEM_GHOSE_FILTER>  (1) 
0

>  <JCHEM_IUPAC>  (1) 
(1S,2S,3R,4S,5S)-5-[(1,3-dihydroxypropan-2-yl)amino]-1-(hydroxymethyl)cyclohexane-1,2,3,4-tetrol

>  <JCHEM_LOGP>  (1) 
-4.852786626333334

>  <JCHEM_MDDR_LIKE_RULE>  (1) 
0

>  <JCHEM_NUMBER_OF_RINGS>  (1) 
1

>  <JCHEM_PHYSIOLOGICAL_CHARGE>  (1) 
1

>  <JCHEM_PKA>  (1) 
13.265209747663402

>  <JCHEM_PKA_STRONGEST_ACIDIC>  (1) 
12.45583891661365

>  <JCHEM_PKA_STRONGEST_BASIC>  (1) 
7.658290741647424

>  <JCHEM_POLAR_SURFACE_AREA>  (1) 
153.64000000000001

>  <JCHEM_REFRACTIVITY>  (1) 
59.546700000000016

>  <JCHEM_ROTATABLE_BOND_COUNT>  (1) 
5

>  <JCHEM_RULE_OF_FIVE>  (1) 
0

>  <JCHEM_TRADITIONAL_IUPAC>  (1) 
voglibose

>  <JCHEM_VEBER_RULE>  (1) 
0

>  <MOLECULAR_WEIGHT>  (1) 
267.2762

>  <SMILES>  (1) 
OCC(CO)N[C@H]1C[C@](O)(CO)[C@@H](O)[C@H](O)[C@H]1O

$$$$
