4842
     RDKit          2D

 66 70  0  0  1  0  0  0  0  0999 V2000
    1.6500   -0.7962    0.0000 F   0  0  0  0  0  0  0  0  0  0  0  0
    6.6001   -3.6542    0.0000 F   0  0  0  0  0  0  0  0  0  0  0  0
    9.3052   -0.8193    0.0000 O   0  0  0  0  0  0  0  0  0  0  0  0
    9.5601    1.3002    0.0000 N   0  0  0  0  0  0  0  0  0  0  0  0
    7.4252    0.6328    0.0000 N   0  0  0  0  0  0  0  0  0  0  0  0
   10.3447    0.2203    0.0000 N   0  0  0  0  0  0  0  0  0  0  0  0
    9.0752    0.6328    0.0000 C   0  0  0  0  0  0  0  0  0  0  0  0
    8.6627   -0.0817    0.0000 C   0  0  0  0  0  0  0  0  0  0  0  0
    8.6627    1.3473    0.0000 C   0  0  0  0  0  0  0  0  0  0  0  0
    7.8377   -0.0817    0.0000 C   0  0  0  0  0  0  0  0  0  0  0  0
    7.8377    1.3473    0.0000 C   0  0  0  0  0  0  0  0  0  0  0  0
    9.5601   -0.0347    0.0000 C   0  0  0  0  0  0  0  0  0  0  0  0
   10.3447    1.0453    0.0000 C   0  0  0  0  0  0  0  0  0  0  0  0
    6.6001    0.6328    0.0000 C   0  0  0  0  0  0  0  0  0  0  0  0
    9.3052    2.0849    0.0000 C   0  0  0  0  0  0  0  0  0  0  0  0
    6.1876   -0.0817    0.0000 C   0  0  0  0  0  0  0  0  0  0  0  0
    5.3626   -0.0817    0.0000 C   0  0  0  0  0  0  0  0  0  0  0  0
    4.9501   -0.7962    0.0000 C   0  0  0  0  0  0  0  0  0  0  0  0
    8.4982    2.2564    0.0000 C   0  0  0  0  0  0  0  0  0  0  0  0
    9.8572    2.6980    0.0000 C   0  0  0  0  0  0  0  0  0  0  0  0
    4.1251   -0.7962    0.0000 C   0  0  0  0  0  0  0  0  0  0  0  0
    5.3626   -1.5107    0.0000 C   0  0  0  0  0  0  0  0  0  0  0  0
    8.2433    3.0410    0.0000 C   0  0  0  0  0  0  0  0  0  0  0  0
    9.6023    3.4826    0.0000 C   0  0  0  0  0  0  0  0  0  0  0  0
    8.7953    3.6542    0.0000 C   0  0  0  0  0  0  0  0  0  0  0  0
    3.7126   -1.5107    0.0000 C   0  0  0  0  0  0  0  0  0  0  0  0
    6.1876   -1.5107    0.0000 C   0  0  0  0  0  0  0  0  0  0  0  0
    3.7126   -0.0817    0.0000 C   0  0  0  0  0  0  0  0  0  0  0  0
    4.9501   -2.2252    0.0000 C   0  0  0  0  0  0  0  0  0  0  0  0
    2.8876   -1.5107    0.0000 C   0  0  0  0  0  0  0  0  0  0  0  0
    6.6001   -2.2252    0.0000 C   0  0  0  0  0  0  0  0  0  0  0  0
    2.8876   -0.0817    0.0000 C   0  0  0  0  0  0  0  0  0  0  0  0
    5.3626   -2.9396    0.0000 C   0  0  0  0  0  0  0  0  0  0  0  0
    2.4751   -0.7962    0.0000 C   0  0  0  0  0  0  0  0  0  0  0  0
    6.1876   -2.9396    0.0000 C   0  0  0  0  0  0  0  0  0  0  0  0
    0.0000    0.0000    0.0000 H   0  0  0  0  0  0  0  0  0  0  0  0
    0.0000    0.0000    0.0000 H   0  0  0  0  0  0  0  0  0  0  0  0
    0.0000    0.0000    0.0000 H   0  0  0  0  0  0  0  0  0  0  0  0
    0.0000    0.0000    0.0000 H   0  0  0  0  0  0  0  0  0  0  0  0
    0.0000    0.0000    0.0000 H   0  0  0  0  0  0  0  0  0  0  0  0
    0.0000    0.0000    0.0000 H   0  0  0  0  0  0  0  0  0  0  0  0
    0.0000    0.0000    0.0000 H   0  0  0  0  0  0  0  0  0  0  0  0
    0.0000    0.0000    0.0000 H   0  0  0  0  0  0  0  0  0  0  0  0
    0.0000    0.0000    0.0000 H   0  0  0  0  0  0  0  0  0  0  0  0
    0.0000    0.0000    0.0000 H   0  0  0  0  0  0  0  0  0  0  0  0
    0.0000    0.0000    0.0000 H   0  0  0  0  0  0  0  0  0  0  0  0
    0.0000    0.0000    0.0000 H   0  0  0  0  0  0  0  0  0  0  0  0
    0.0000    0.0000    0.0000 H   0  0  0  0  0  0  0  0  0  0  0  0
    0.0000    0.0000    0.0000 H   0  0  0  0  0  0  0  0  0  0  0  0
    0.0000    0.0000    0.0000 H   0  0  0  0  0  0  0  0  0  0  0  0
    0.0000    0.0000    0.0000 H   0  0  0  0  0  0  0  0  0  0  0  0
    0.0000    0.0000    0.0000 H   0  0  0  0  0  0  0  0  0  0  0  0
    0.0000    0.0000    0.0000 H   0  0  0  0  0  0  0  0  0  0  0  0
    0.0000    0.0000    0.0000 H   0  0  0  0  0  0  0  0  0  0  0  0
    0.0000    0.0000    0.0000 H   0  0  0  0  0  0  0  0  0  0  0  0
    0.0000    0.0000    0.0000 H   0  0  0  0  0  0  0  0  0  0  0  0
    0.0000    0.0000    0.0000 H   0  0  0  0  0  0  0  0  0  0  0  0
    0.0000    0.0000    0.0000 H   0  0  0  0  0  0  0  0  0  0  0  0
    0.0000    0.0000    0.0000 H   0  0  0  0  0  0  0  0  0  0  0  0
    0.0000    0.0000    0.0000 H   0  0  0  0  0  0  0  0  0  0  0  0
    0.0000    0.0000    0.0000 H   0  0  0  0  0  0  0  0  0  0  0  0
    0.0000    0.0000    0.0000 H   0  0  0  0  0  0  0  0  0  0  0  0
    0.0000    0.0000    0.0000 H   0  0  0  0  0  0  0  0  0  0  0  0
    0.0000    0.0000    0.0000 H   0  0  0  0  0  0  0  0  0  0  0  0
    0.0000    0.0000    0.0000 H   0  0  0  0  0  0  0  0  0  0  0  0
    0.0000    0.0000    0.0000 H   0  0  0  0  0  0  0  0  0  0  0  0
  1 34  1  0
  2 35  1  0
  3 12  2  0
  4  7  1  0
  4 13  1  0
  4 15  1  0
  5 10  1  0
  5 11  1  0
  5 14  1  0
  6 12  1  0
  6 13  1  0
  7  8  1  0
  7  9  1  0
  7 12  1  0
  8 10  1  0
  9 11  1  0
 14 16  1  0
 15 19  2  0
 15 20  1  0
 16 17  1  0
 17 18  1  0
 18 21  1  0
 18 22  1  0
 19 23  1  0
 20 24  2  0
 21 26  2  0
 21 28  1  0
 22 27  2  0
 22 29  1  0
 23 25  2  0
 24 25  1  0
 26 30  1  0
 27 31  1  0
 28 32  2  0
 29 33  2  0
 30 34  2  0
 31 35  2  0
 32 34  1  0
 33 35  1  0
  6 36  1  0
  8 37  1  0
  8 38  1  0
  9 39  1  0
  9 40  1  0
 10 41  1  0
 10 42  1  0
 11 43  1  0
 11 44  1  0
 13 45  1  0
 13 46  1  0
 14 47  1  0
 14 48  1  0
 16 49  1  0
 16 50  1  0
 17 51  1  0
 17 52  1  0
 18 53  1  0
 19 54  1  0
 20 55  1  0
 23 56  1  0
 24 57  1  0
 25 58  1  0
 26 59  1  0
 27 60  1  0
 28 61  1  0
 29 62  1  0
 30 63  1  0
 31 64  1  0
 32 65  1  0
 33 66  1  0
M  END
>  <ALOGPS_LOGP>  (1) 
5.18

>  <ALOGPS_LOGS>  (1) 
-5.45

>  <ALOGPS_SOLUBILITY>  (1) 
1.67e-03 g/l

>  <DATABASE_ID>  (1) 
DB04842

>  <DATABASE_NAME>  (1) 
drugbank

>  <DRUGBANK_ID>  (1) 
DB04842

>  <DRUG_GROUPS>  (1) 
approved; investigational

>  <EXACT_MASS>  (1) 
475.243519039

>  <FORMULA>  (1) 
C29H31F2N3O

>  <GENERIC_NAME>  (1) 
Fluspirilene

>  <INCHI_IDENTIFIER>  (1) 
InChI=1S/C29H31F2N3O/c30-24-12-8-22(9-13-24)27(23-10-14-25(31)15-11-23)7-4-18-33-19-16-29(17-20-33)28(35)32-21-34(29)26-5-2-1-3-6-26/h1-3,5-6,8-15,27H,4,7,16-21H2,(H,32,35)

>  <INCHI_KEY>  (1) 
QOYHHIBFXOOADH-UHFFFAOYSA-N

>  <INTERNATIONAL_BRANDS>  (1) 
Imap; lmap; Redeptin

>  <JCHEM_ACCEPTOR_COUNT>  (1) 
3

>  <JCHEM_AVERAGE_POLARIZABILITY>  (1) 
50.87928980740421

>  <JCHEM_BIOAVAILABILITY>  (1) 
1

>  <JCHEM_DONOR_COUNT>  (1) 
1

>  <JCHEM_FORMAL_CHARGE>  (1) 
0

>  <JCHEM_GHOSE_FILTER>  (1) 
0

>  <JCHEM_IUPAC>  (1) 
8-[4,4-bis(4-fluorophenyl)butyl]-1-phenyl-1,3,8-triazaspiro[4.5]decan-4-one

>  <JCHEM_LOGP>  (1) 
5.778034304

>  <JCHEM_MDDR_LIKE_RULE>  (1) 
1

>  <JCHEM_NUMBER_OF_RINGS>  (1) 
5

>  <JCHEM_PHYSIOLOGICAL_CHARGE>  (1) 
1

>  <JCHEM_PKA_STRONGEST_ACIDIC>  (1) 
11.987692739635305

>  <JCHEM_PKA_STRONGEST_BASIC>  (1) 
9.312082745538273

>  <JCHEM_POLAR_SURFACE_AREA>  (1) 
35.580000000000005

>  <JCHEM_REFRACTIVITY>  (1) 
135.26750000000004

>  <JCHEM_ROTATABLE_BOND_COUNT>  (1) 
7

>  <JCHEM_RULE_OF_FIVE>  (1) 
0

>  <JCHEM_TRADITIONAL_IUPAC>  (1) 
fluspirilene

>  <JCHEM_VEBER_RULE>  (1) 
1

>  <MOLECULAR_WEIGHT>  (1) 
475.5727

>  <PRODUCTS>  (1) 
Imap Forte Inj 10mg/ml; Imap Inj 2mg/ml

>  <SMILES>  (1) 
FC1=CC=C(C=C1)C(CCCN1CCC2(CC1)N(CNC2=O)C1=CC=CC=C1)C1=CC=C(F)C=C1

>  <SYNONYMS>  (1) 
Fluspirileno; Fluspirilenum

$$$$
