
     RDKit          2D

 77 79  0  0  0  0  0  0  0  0999 V2000
    0.3706    1.8638    0.0000 O   0  0  0  0  0  0  0  0  0  0  0  0
    1.0871    1.4431    0.0000 C   0  0  0  0  0  0  0  0  0  0  0  0
    0.3706    1.0308    0.0000 C   0  0  0  0  0  0  0  0  0  0  0  0
    3.2195   -1.4474    0.0000 C   0  0  0  0  0  0  0  0  0  0  0  0
    2.5115   -1.0350    0.0000 C   0  0  0  0  0  0  0  0  0  0  0  0
    3.9317   -1.0433    0.0000 C   0  0  0  0  0  0  0  0  0  0  0  0
   -3.2654   -0.1104    0.0000 N   0  0  0  0  0  0  0  0  0  0  0  0
   -0.3623   -1.0308    0.0000 N   0  0  0  0  0  0  0  0  0  0  0  0
    0.3748   -1.4349    0.0000 C   0  0  0  0  0  0  0  0  0  0  0  0
   -0.3498   -0.1978    0.0000 C   0  0  0  0  0  0  0  0  0  0  0  0
   -2.5032    0.2269    0.0000 C   0  0  0  0  0  0  0  0  0  0  0  0
    1.7992   -1.4431    0.0000 C   0  0  0  0  0  0  0  0  0  0  0  0
    0.3623    0.2061    0.0000 C   0  0  0  0  0  0  0  0  0  0  0  0
    1.0871   -1.0225    0.0000 C   0  0  0  0  0  0  0  0  0  0  0  0
   -1.7867   -0.1978    0.0000 C   0  0  0  0  0  0  0  0  0  0  0  0
   -1.0662    0.2144    0.0000 C   0  0  0  0  0  0  0  0  0  0  0  0
    3.9359   -0.2228    0.0000 C   0  0  0  0  0  0  0  0  0  0  0  0
   -3.8235    0.5143    0.0000 C   0  0  0  0  0  0  0  0  0  0  0  0
   -3.3986    1.2265    0.0000 S   0  0  0  0  0  0  0  0  0  0  0  0
   -2.5865    1.0516    0.0000 C   0  0  0  0  0  0  0  0  0  0  0  0
    3.2112   -2.2678    0.0000 O   0  0  0  0  0  0  0  0  0  0  0  0
    0.3706   -2.2553    0.0000 O   0  0  0  0  0  0  0  0  0  0  0  0
    3.2237    0.1936    0.0000 C   0  0  0  0  0  0  0  0  0  0  0  0
    1.7992    1.0266    0.0000 C   0  0  0  0  0  0  0  0  0  0  0  0
    4.6481    0.1894    0.0000 O   0  0  0  0  0  0  0  0  0  0  0  0
    1.7951   -2.2595    0.0000 O   0  0  0  0  0  0  0  0  0  0  0  0
    1.0953    2.2678    0.0000 C   0  0  0  0  0  0  0  0  0  0  0  0
    3.0820   -0.4602    0.0000 C   0  0  0  0  0  0  0  0  0  0  0  0
    1.9325   -0.4560    0.0000 C   0  0  0  0  0  0  0  0  0  0  0  0
    4.6356   -1.4556    0.0000 C   0  0  0  0  0  0  0  0  0  0  0  0
   -1.0620    1.0433    0.0000 C   0  0  0  0  0  0  0  0  0  0  0  0
   -4.6481    0.4269    0.0000 C   0  0  0  0  0  0  0  0  0  0  0  0
    2.5197    1.4389    0.0000 C   0  0  0  0  0  0  0  0  0  0  0  0
    3.2320    1.0183    0.0000 C   0  0  0  0  0  0  0  0  0  0  0  0
    2.5115   -0.2104    0.0000 C   0  0  0  0  0  0  0  0  0  0  0  0
    0.0000    0.0000    0.0000 H   0  0  0  0  0  0  0  0  0  0  0  0
    0.0000    0.0000    0.0000 H   0  0  0  0  0  0  0  0  0  0  0  0
    0.0000    0.0000    0.0000 H   0  0  0  0  0  0  0  0  0  0  0  0
    0.0000    0.0000    0.0000 H   0  0  0  0  0  0  0  0  0  0  0  0
    0.0000    0.0000    0.0000 H   0  0  0  0  0  0  0  0  0  0  0  0
    0.0000    0.0000    0.0000 H   0  0  0  0  0  0  0  0  0  0  0  0
    0.0000    0.0000    0.0000 H   0  0  0  0  0  0  0  0  0  0  0  0
    0.0000    0.0000    0.0000 H   0  0  0  0  0  0  0  0  0  0  0  0
    0.0000    0.0000    0.0000 H   0  0  0  0  0  0  0  0  0  0  0  0
    0.0000    0.0000    0.0000 H   0  0  0  0  0  0  0  0  0  0  0  0
    0.0000    0.0000    0.0000 H   0  0  0  0  0  0  0  0  0  0  0  0
    0.0000    0.0000    0.0000 H   0  0  0  0  0  0  0  0  0  0  0  0
    0.0000    0.0000    0.0000 H   0  0  0  0  0  0  0  0  0  0  0  0
    0.0000    0.0000    0.0000 H   0  0  0  0  0  0  0  0  0  0  0  0
    0.0000    0.0000    0.0000 H   0  0  0  0  0  0  0  0  0  0  0  0
    0.0000    0.0000    0.0000 H   0  0  0  0  0  0  0  0  0  0  0  0
    0.0000    0.0000    0.0000 H   0  0  0  0  0  0  0  0  0  0  0  0
    0.0000    0.0000    0.0000 H   0  0  0  0  0  0  0  0  0  0  0  0
    0.0000    0.0000    0.0000 H   0  0  0  0  0  0  0  0  0  0  0  0
    0.0000    0.0000    0.0000 H   0  0  0  0  0  0  0  0  0  0  0  0
    0.0000    0.0000    0.0000 H   0  0  0  0  0  0  0  0  0  0  0  0
    0.0000    0.0000    0.0000 H   0  0  0  0  0  0  0  0  0  0  0  0
    0.0000    0.0000    0.0000 H   0  0  0  0  0  0  0  0  0  0  0  0
    0.0000    0.0000    0.0000 H   0  0  0  0  0  0  0  0  0  0  0  0
    0.0000    0.0000    0.0000 H   0  0  0  0  0  0  0  0  0  0  0  0
    0.0000    0.0000    0.0000 H   0  0  0  0  0  0  0  0  0  0  0  0
    0.0000    0.0000    0.0000 H   0  0  0  0  0  0  0  0  0  0  0  0
    0.0000    0.0000    0.0000 H   0  0  0  0  0  0  0  0  0  0  0  0
    0.0000    0.0000    0.0000 H   0  0  0  0  0  0  0  0  0  0  0  0
    0.0000    0.0000    0.0000 H   0  0  0  0  0  0  0  0  0  0  0  0
    0.0000    0.0000    0.0000 H   0  0  0  0  0  0  0  0  0  0  0  0
    0.0000    0.0000    0.0000 H   0  0  0  0  0  0  0  0  0  0  0  0
    0.0000    0.0000    0.0000 H   0  0  0  0  0  0  0  0  0  0  0  0
    0.0000    0.0000    0.0000 H   0  0  0  0  0  0  0  0  0  0  0  0
    0.0000    0.0000    0.0000 H   0  0  0  0  0  0  0  0  0  0  0  0
    0.0000    0.0000    0.0000 H   0  0  0  0  0  0  0  0  0  0  0  0
    0.0000    0.0000    0.0000 H   0  0  0  0  0  0  0  0  0  0  0  0
    0.0000    0.0000    0.0000 H   0  0  0  0  0  0  0  0  0  0  0  0
    0.0000    0.0000    0.0000 H   0  0  0  0  0  0  0  0  0  0  0  0
    0.0000    0.0000    0.0000 H   0  0  0  0  0  0  0  0  0  0  0  0
    0.0000    0.0000    0.0000 H   0  0  0  0  0  0  0  0  0  0  0  0
    0.0000    0.0000    0.0000 H   0  0  0  0  0  0  0  0  0  0  0  0
  2  1  1  0
  3  1  1  0
  4  6  1  0
  5 12  1  0
  6 17  1  0
  7 11  1  0
  8 10  1  0
  9  8  1  0
 10 13  1  0
 11 15  1  0
 12 14  1  0
 13  3  1  0
 14  9  1  0
 15 16  2  0
 10 16  1  1
 17 23  1  0
 18  7  2  0
 19 20  1  0
 20 11  2  0
 21  4  2  0
 22  9  2  0
 23 34  1  0
 24  2  1  0
 17 25  1  1
 12 26  1  6
  2 27  1  1
 28  5  1  0
 29  5  1  0
  6 30  1  6
 31 16  1  0
 32 18  1  0
 33 24  1  0
 34 33  1  0
 23 35  1  1
  2  3  1  0
 18 19  1  0
  5  4  1  0
  3 36  1  1
  6 37  1  0
  8 38  1  0
 10 39  1  0
 12 40  1  0
 13 41  1  0
 13 42  1  0
 14 43  1  0
 14 44  1  0
 15 45  1  0
 17 46  1  0
 20 47  1  0
 23 48  1  0
 24 49  1  0
 24 50  1  0
 25 51  1  0
 26 52  1  0
 27 53  1  0
 27 54  1  0
 27 55  1  0
 28 56  1  0
 28 57  1  0
 28 58  1  0
 29 59  1  0
 29 60  1  0
 29 61  1  0
 30 62  1  0
 30 63  1  0
 30 64  1  0
 31 65  1  0
 31 66  1  0
 31 67  1  0
 32 68  1  0
 32 69  1  0
 32 70  1  0
 33 71  1  0
 33 72  1  0
 34 73  1  0
 34 74  1  0
 35 75  1  0
 35 76  1  0
 35 77  1  0
M  END
>  <ALOGPS_LOGP>  (1) 
3.28

>  <ALOGPS_LOGS>  (1) 
-5.16

>  <ALOGPS_SOLUBILITY>  (1) 
3.52e-03 g/l

>  <DATABASE_ID>  (1) 
DB04845

>  <DATABASE_NAME>  (1) 
drugbank

>  <DRUGBANK_ID>  (1) 
DB04845

>  <DRUG_GROUPS>  (1) 
approved; investigational

>  <EXACT_MASS>  (1) 
506.281443634

>  <FORMULA>  (1) 
C27H42N2O5S

>  <GENERIC_NAME>  (1) 
Ixabepilone

>  <INCHI_IDENTIFIER>  (1) 
InChI=1S/C27H42N2O5S/c1-15-9-8-10-27(7)22(34-27)12-20(16(2)11-19-14-35-18(4)28-19)29-23(31)13-21(30)26(5,6)25(33)17(3)24(15)32/h11,14-15,17,20-22,24,30,32H,8-10,12-13H2,1-7H3,(H,29,31)/b16-11+/t15-,17+,20-,21-,22-,24-,27+/m0/s1

>  <INCHI_KEY>  (1) 
FABUFPQFXZVHFB-PVYNADRNSA-N

>  <JCHEM_ACCEPTOR_COUNT>  (1) 
6

>  <JCHEM_ATOM_COUNT>  (1) 
77

>  <JCHEM_AVERAGE_POLARIZABILITY>  (1) 
56.86362995150663

>  <JCHEM_BIOAVAILABILITY>  (1) 
1

>  <JCHEM_DONOR_COUNT>  (1) 
3

>  <JCHEM_FORMAL_CHARGE>  (1) 
0

>  <JCHEM_GHOSE_FILTER>  (1) 
0

>  <JCHEM_IUPAC>  (1) 
(1S,3S,7S,10R,11S,12S,16R)-7,11-dihydroxy-8,8,10,12,16-pentamethyl-3-[(1E)-1-(2-methyl-1,3-thiazol-4-yl)prop-1-en-2-yl]-17-oxa-4-azabicyclo[14.1.0]heptadecane-5,9-dione

>  <JCHEM_LOGP>  (1) 
3.3935731543333327

>  <JCHEM_MDDR_LIKE_RULE>  (1) 
0

>  <JCHEM_NUMBER_OF_RINGS>  (1) 
3

>  <JCHEM_PHYSIOLOGICAL_CHARGE>  (1) 
0

>  <JCHEM_PKA>  (1) 
14.42627559325354

>  <JCHEM_PKA_STRONGEST_ACIDIC>  (1) 
13.845020296062923

>  <JCHEM_PKA_STRONGEST_BASIC>  (1) 
2.729351082092086

>  <JCHEM_POLAR_SURFACE_AREA>  (1) 
112.05000000000001

>  <JCHEM_REFRACTIVITY>  (1) 
136.7098

>  <JCHEM_ROTATABLE_BOND_COUNT>  (1) 
2

>  <JCHEM_RULE_OF_FIVE>  (1) 
0

>  <JCHEM_TRADITIONAL_IUPAC>  (1) 
ixabepilone

>  <JCHEM_VEBER_RULE>  (1) 
0

>  <MOLECULAR_WEIGHT>  (1) 
506.7

>  <PRODUCTS>  (1) 
Ixempra

>  <SMILES>  (1) 
[H][C@]12C[C@H](NC(=O)C[C@H](O)C(C)(C)C(=O)[C@H](C)[C@@H](O)[C@@H](C)CCC[C@@]1(C)O2)C(\C)=C\C1=CSC(C)=N1

>  <SYNONYMS>  (1) 
Aza-epothilone B; Azaepothilone B

$$$$
