
     RDKit          2D

150156  0  0  0  0  0  0  0  0999 V2000
   -2.6143    1.4492    0.0000 C   0  0  0  0  0  0  0  0  0  0  0  0
   -2.3172    0.0515    0.0000 C   0  0  0  0  0  0  0  0  0  0  0  0
    4.0100   -5.9078    0.0000 C   0  0  0  0  0  0  0  0  0  0  0  0
    4.2649   -5.1232    0.0000 C   0  0  0  0  0  0  0  0  0  0  0  0
    3.2030   -6.0793    0.0000 C   0  0  0  0  0  0  0  0  0  0  0  0
   -3.6709   -5.7444    0.0000 C   0  0  0  0  0  0  0  0  0  0  0  0
    4.4410    2.7333    0.0000 C   0  0  0  0  0  0  0  0  0  0  0  0
   -2.9564   -6.1569    0.0000 C   0  0  0  0  0  0  0  0  0  0  0  0
    4.4410    3.5583    0.0000 C   0  0  0  0  0  0  0  0  0  0  0  0
   -1.0425    3.9746    0.0000 C   0  0  0  0  0  0  0  0  0  0  0  0
   -0.7876    4.7592    0.0000 C   0  0  0  0  0  0  0  0  0  0  0  0
    3.7129   -4.5101    0.0000 C   0  0  0  0  0  0  0  0  0  0  0  0
    2.6510   -5.4662    0.0000 C   0  0  0  0  0  0  0  0  0  0  0  0
   -3.6709   -4.9194    0.0000 C   0  0  0  0  0  0  0  0  0  0  0  0
    3.7265    2.3208    0.0000 C   0  0  0  0  0  0  0  0  0  0  0  0
   -2.2420   -5.7444    0.0000 C   0  0  0  0  0  0  0  0  0  0  0  0
    3.7265    3.9708    0.0000 C   0  0  0  0  0  0  0  0  0  0  0  0
   -0.4905    3.3615    0.0000 C   0  0  0  0  0  0  0  0  0  0  0  0
    2.3118   -1.8862    0.0000 C   0  0  0  0  0  0  0  0  0  0  0  0
    3.3737   -0.9300    0.0000 C   0  0  0  0  0  0  0  0  0  0  0  0
    2.8638   -2.4993    0.0000 C   0  0  0  0  0  0  0  0  0  0  0  0
    3.9257   -1.5431    0.0000 C   0  0  0  0  0  0  0  0  0  0  0  0
   -1.3396    5.3723    0.0000 C   0  0  0  0  0  0  0  0  0  0  0  0
    2.3539   -4.0685    0.0000 C   0  0  0  0  0  0  0  0  0  0  0  0
    2.0147   -0.4885    0.0000 C   0  0  0  0  0  0  0  0  0  0  0  0
   -3.3369   -3.0869    0.0000 C   0  0  0  0  0  0  0  0  0  0  0  0
    1.9725    1.6938    0.0000 C   0  0  0  0  0  0  0  0  0  0  0  0
   -1.9644   -3.6137    0.0000 C   0  0  0  0  0  0  0  0  0  0  0  0
    1.7425    3.1458    0.0000 C   0  0  0  0  0  0  0  0  0  0  0  0
    0.4429   -3.0139    0.0000 C   0  0  0  0  0  0  0  0  0  0  0  0
   -0.6611   -1.7877    0.0000 C   0  0  0  0  0  0  0  0  0  0  0  0
   -2.0623    0.8361    0.0000 C   0  0  0  0  0  0  0  0  0  0  0  0
    2.9059   -4.6816    0.0000 C   0  0  0  0  0  0  0  0  0  0  0  0
    2.5667   -1.1016    0.0000 C   0  0  0  0  0  0  0  0  0  0  0  0
   -2.7849   -3.7000    0.0000 C   0  0  0  0  0  0  0  0  0  0  0  0
    2.2274    2.4784    0.0000 C   0  0  0  0  0  0  0  0  0  0  0  0
    3.6708   -2.3278    0.0000 C   0  0  0  0  0  0  0  0  0  0  0  0
   -2.9564   -4.5069    0.0000 C   0  0  0  0  0  0  0  0  0  0  0  0
    3.0121    2.7333    0.0000 C   0  0  0  0  0  0  0  0  0  0  0  0
    1.5469   -4.2401    0.0000 C   0  0  0  0  0  0  0  0  0  0  0  0
   -2.2420   -4.9194    0.0000 C   0  0  0  0  0  0  0  0  0  0  0  0
    3.0121    3.5583    0.0000 C   0  0  0  0  0  0  0  0  0  0  0  0
   -0.7454    2.5769    0.0000 C   0  0  0  0  0  0  0  0  0  0  0  0
   -3.0820   -2.3023    0.0000 C   0  0  0  0  0  0  0  0  0  0  0  0
    1.2077   -0.6600    0.0000 C   0  0  0  0  0  0  0  0  0  0  0  0
    1.1655    1.5222    0.0000 C   0  0  0  0  0  0  0  0  0  0  0  0
    0.6978   -2.2292    0.0000 C   0  0  0  0  0  0  0  0  0  0  0  0
   -1.2131   -1.1746    0.0000 C   0  0  0  0  0  0  0  0  0  0  0  0
   -1.2553    1.0077    0.0000 C   0  0  0  0  0  0  0  0  0  0  0  0
   -3.6340   -1.6892    0.0000 C   0  0  0  0  0  0  0  0  0  0  0  0
    0.9949   -3.6270    0.0000 C   0  0  0  0  0  0  0  0  0  0  0  0
   -1.5524    2.4054    0.0000 C   0  0  0  0  0  0  0  0  0  0  0  0
    1.4626    0.1245    0.0000 C   0  0  0  0  0  0  0  0  0  0  0  0
    0.6135    2.1353    0.0000 C   0  0  0  0  0  0  0  0  0  0  0  0
   -2.0201   -1.3461    0.0000 C   0  0  0  0  0  0  0  0  0  0  0  0
    1.5048   -2.0577    0.0000 C   0  0  0  0  0  0  0  0  0  0  0  0
   -1.5102    0.2230    0.0000 C   0  0  0  0  0  0  0  0  0  0  0  0
   -1.0846    6.1569    0.0000 N   0  0  0  0  0  0  0  0  0  0  0  0
    1.2920   -5.0247    0.0000 N   0  0  0  0  0  0  0  0  0  0  0  0
   -4.4410   -1.8607    0.0000 N   0  0  0  0  0  0  0  0  0  0  0  0
   -1.6289   -4.3674    0.0000 N   0  0  0  0  0  0  0  0  0  0  0  0
    2.2274    3.8133    0.0000 N   0  0  0  0  0  0  0  0  0  0  0  0
   -0.1934    1.9638    0.0000 N   0  0  0  0  0  0  0  0  0  0  0  0
   -2.2750   -2.1307    0.0000 N   0  0  0  0  0  0  0  0  0  0  0  0
    1.7597   -1.2731    0.0000 N   0  0  0  0  0  0  0  0  0  0  0  0
    0.9106    0.7376    0.0000 N   0  0  0  0  0  0  0  0  0  0  0  0
    1.2498   -2.8423    0.0000 N   0  0  0  0  0  0  0  0  0  0  0  0
   -0.9582   -0.3900    0.0000 N   0  0  0  0  0  0  0  0  0  0  0  0
   -1.8073    1.6207    0.0000 N   0  0  0  0  0  0  0  0  0  0  0  0
    4.2228   -2.9409    0.0000 O   0  0  0  0  0  0  0  0  0  0  0  0
   -3.3791   -0.9045    0.0000 O   0  0  0  0  0  0  0  0  0  0  0  0
    0.1879   -3.7985    0.0000 O   0  0  0  0  0  0  0  0  0  0  0  0
   -2.1044    3.0185    0.0000 O   0  0  0  0  0  0  0  0  0  0  0  0
    2.2696    0.2960    0.0000 O   0  0  0  0  0  0  0  0  0  0  0  0
    0.8684    2.9199    0.0000 O   0  0  0  0  0  0  0  0  0  0  0  0
   -2.5721   -0.7330    0.0000 O   0  0  0  0  0  0  0  0  0  0  0  0
    2.0568   -2.6708    0.0000 O   0  0  0  0  0  0  0  0  0  0  0  0
   -2.0623   -0.3900    0.0000 O   0  0  0  0  0  0  0  0  0  0  0  0
   -0.3640   -3.1854    0.0000 S   0  0  0  0  0  0  0  0  0  0  0  0
   -0.9160   -2.5723    0.0000 S   0  0  0  0  0  0  0  0  0  0  0  0
    0.0000    0.0000    0.0000 H   0  0  0  0  0  0  0  0  0  0  0  0
    0.0000    0.0000    0.0000 H   0  0  0  0  0  0  0  0  0  0  0  0
    0.0000    0.0000    0.0000 H   0  0  0  0  0  0  0  0  0  0  0  0
    0.0000    0.0000    0.0000 H   0  0  0  0  0  0  0  0  0  0  0  0
    0.0000    0.0000    0.0000 H   0  0  0  0  0  0  0  0  0  0  0  0
    0.0000    0.0000    0.0000 H   0  0  0  0  0  0  0  0  0  0  0  0
    0.0000    0.0000    0.0000 H   0  0  0  0  0  0  0  0  0  0  0  0
    0.0000    0.0000    0.0000 H   0  0  0  0  0  0  0  0  0  0  0  0
    0.0000    0.0000    0.0000 H   0  0  0  0  0  0  0  0  0  0  0  0
    0.0000    0.0000    0.0000 H   0  0  0  0  0  0  0  0  0  0  0  0
    0.0000    0.0000    0.0000 H   0  0  0  0  0  0  0  0  0  0  0  0
    0.0000    0.0000    0.0000 H   0  0  0  0  0  0  0  0  0  0  0  0
    0.0000    0.0000    0.0000 H   0  0  0  0  0  0  0  0  0  0  0  0
    0.0000    0.0000    0.0000 H   0  0  0  0  0  0  0  0  0  0  0  0
    0.0000    0.0000    0.0000 H   0  0  0  0  0  0  0  0  0  0  0  0
    0.0000    0.0000    0.0000 H   0  0  0  0  0  0  0  0  0  0  0  0
    0.0000    0.0000    0.0000 H   0  0  0  0  0  0  0  0  0  0  0  0
    0.0000    0.0000    0.0000 H   0  0  0  0  0  0  0  0  0  0  0  0
    0.0000    0.0000    0.0000 H   0  0  0  0  0  0  0  0  0  0  0  0
    0.0000    0.0000    0.0000 H   0  0  0  0  0  0  0  0  0  0  0  0
    0.0000    0.0000    0.0000 H   0  0  0  0  0  0  0  0  0  0  0  0
    0.0000    0.0000    0.0000 H   0  0  0  0  0  0  0  0  0  0  0  0
    0.0000    0.0000    0.0000 H   0  0  0  0  0  0  0  0  0  0  0  0
    0.0000    0.0000    0.0000 H   0  0  0  0  0  0  0  0  0  0  0  0
    0.0000    0.0000    0.0000 H   0  0  0  0  0  0  0  0  0  0  0  0
    0.0000    0.0000    0.0000 H   0  0  0  0  0  0  0  0  0  0  0  0
    0.0000    0.0000    0.0000 H   0  0  0  0  0  0  0  0  0  0  0  0
    0.0000    0.0000    0.0000 H   0  0  0  0  0  0  0  0  0  0  0  0
    0.0000    0.0000    0.0000 H   0  0  0  0  0  0  0  0  0  0  0  0
    0.0000    0.0000    0.0000 H   0  0  0  0  0  0  0  0  0  0  0  0
    0.0000    0.0000    0.0000 H   0  0  0  0  0  0  0  0  0  0  0  0
    0.0000    0.0000    0.0000 H   0  0  0  0  0  0  0  0  0  0  0  0
    0.0000    0.0000    0.0000 H   0  0  0  0  0  0  0  0  0  0  0  0
    0.0000    0.0000    0.0000 H   0  0  0  0  0  0  0  0  0  0  0  0
    0.0000    0.0000    0.0000 H   0  0  0  0  0  0  0  0  0  0  0  0
    0.0000    0.0000    0.0000 H   0  0  0  0  0  0  0  0  0  0  0  0
    0.0000    0.0000    0.0000 H   0  0  0  0  0  0  0  0  0  0  0  0
    0.0000    0.0000    0.0000 H   0  0  0  0  0  0  0  0  0  0  0  0
    0.0000    0.0000    0.0000 H   0  0  0  0  0  0  0  0  0  0  0  0
    0.0000    0.0000    0.0000 H   0  0  0  0  0  0  0  0  0  0  0  0
    0.0000    0.0000    0.0000 H   0  0  0  0  0  0  0  0  0  0  0  0
    0.0000    0.0000    0.0000 H   0  0  0  0  0  0  0  0  0  0  0  0
    0.0000    0.0000    0.0000 H   0  0  0  0  0  0  0  0  0  0  0  0
    0.0000    0.0000    0.0000 H   0  0  0  0  0  0  0  0  0  0  0  0
    0.0000    0.0000    0.0000 H   0  0  0  0  0  0  0  0  0  0  0  0
    0.0000    0.0000    0.0000 H   0  0  0  0  0  0  0  0  0  0  0  0
    0.0000    0.0000    0.0000 H   0  0  0  0  0  0  0  0  0  0  0  0
    0.0000    0.0000    0.0000 H   0  0  0  0  0  0  0  0  0  0  0  0
    0.0000    0.0000    0.0000 H   0  0  0  0  0  0  0  0  0  0  0  0
    0.0000    0.0000    0.0000 H   0  0  0  0  0  0  0  0  0  0  0  0
    0.0000    0.0000    0.0000 H   0  0  0  0  0  0  0  0  0  0  0  0
    0.0000    0.0000    0.0000 H   0  0  0  0  0  0  0  0  0  0  0  0
    0.0000    0.0000    0.0000 H   0  0  0  0  0  0  0  0  0  0  0  0
    0.0000    0.0000    0.0000 H   0  0  0  0  0  0  0  0  0  0  0  0
    0.0000    0.0000    0.0000 H   0  0  0  0  0  0  0  0  0  0  0  0
    0.0000    0.0000    0.0000 H   0  0  0  0  0  0  0  0  0  0  0  0
    0.0000    0.0000    0.0000 H   0  0  0  0  0  0  0  0  0  0  0  0
    0.0000    0.0000    0.0000 H   0  0  0  0  0  0  0  0  0  0  0  0
    0.0000    0.0000    0.0000 H   0  0  0  0  0  0  0  0  0  0  0  0
    0.0000    0.0000    0.0000 H   0  0  0  0  0  0  0  0  0  0  0  0
    0.0000    0.0000    0.0000 H   0  0  0  0  0  0  0  0  0  0  0  0
    0.0000    0.0000    0.0000 H   0  0  0  0  0  0  0  0  0  0  0  0
    0.0000    0.0000    0.0000 H   0  0  0  0  0  0  0  0  0  0  0  0
    0.0000    0.0000    0.0000 H   0  0  0  0  0  0  0  0  0  0  0  0
    0.0000    0.0000    0.0000 H   0  0  0  0  0  0  0  0  0  0  0  0
    0.0000    0.0000    0.0000 H   0  0  0  0  0  0  0  0  0  0  0  0
    0.0000    0.0000    0.0000 H   0  0  0  0  0  0  0  0  0  0  0  0
    0.0000    0.0000    0.0000 H   0  0  0  0  0  0  0  0  0  0  0  0
    0.0000    0.0000    0.0000 H   0  0  0  0  0  0  0  0  0  0  0  0
    0.0000    0.0000    0.0000 H   0  0  0  0  0  0  0  0  0  0  0  0
  4  3  2  0
  5  3  1  0
  8  6  2  0
  9  7  2  0
 11 10  1  0
 12  4  1  0
 13  5  2  0
 14  6  1  0
 15  7  1  0
 16  8  1  0
 17  9  1  0
 18 10  1  0
 21 19  2  0
 22 20  1  0
 23 11  1  0
 32  1  1  0
 32  2  1  0
 33 12  2  0
 33 13  1  0
 33 24  1  0
 34 19  1  0
 34 20  2  0
 34 25  1  0
 35 26  1  0
 35 28  2  0
 36 27  1  0
 36 29  2  0
 37 21  1  0
 37 22  2  0
 38 14  2  0
 38 35  1  0
 39 15  2  0
 39 36  1  0
 40 24  1  1
 41 16  2  0
 41 38  1  0
 42 17  2  0
 42 39  1  0
 43 18  1  1
 44 26  1  6
 45 25  1  1
 46 27  1  6
 47 30  1  0
 48 31  1  0
 49 32  1  1
 50 44  1  0
 51 40  1  0
 52 43  1  0
 53 45  1  0
 54 46  1  0
 48 55  1  6
 56 47  1  0
 57 49  1  0
 58 23  1  0
 40 59  1  0
 60 50  2  3
 61 28  1  0
 61 41  1  0
 62 29  1  0
 62 42  1  0
 63 43  1  0
 63 54  2  0
 44 64  1  0
 64 55  2  3
 65 45  1  0
 65 56  2  0
 66 46  1  0
 66 53  2  0
 47 67  1  6
 67 51  2  3
 68 48  1  0
 68 57  2  0
 69 49  1  0
 69 52  2  0
 70 37  1  0
 71 50  1  0
 51 72  1  0
 52 73  1  0
 53 74  1  0
 54 75  1  0
 55 76  1  0
 56 77  1  0
 57 78  1  0
 79 30  1  0
 80 31  1  0
 80 79  1  0
  1 81  1  0
  1 82  1  0
  1 83  1  0
  2 84  1  0
  2 85  1  0
  2 86  1  0
  3 87  1  0
  4 88  1  0
  5 89  1  0
  6 90  1  0
  7 91  1  0
  8 92  1  0
  9 93  1  0
 10 94  1  0
 10 95  1  0
 11 96  1  0
 11 97  1  0
 12 98  1  0
 13 99  1  0
 14100  1  0
 15101  1  0
 16102  1  0
 17103  1  0
 18104  1  0
 18105  1  0
 19106  1  0
 20107  1  0
 21108  1  0
 22109  1  0
 23110  1  0
 23111  1  0
 24112  1  0
 24113  1  0
 25114  1  0
 25115  1  0
 26116  1  0
 26117  1  0
 27118  1  0
 27119  1  0
 28120  1  0
 29121  1  0
 30122  1  0
 30123  1  0
 31124  1  0
 31125  1  0
 32126  1  0
 40127  1  0
 43128  1  0
 44129  1  0
 45130  1  0
 46131  1  0
 47132  1  0
 48133  1  0
 49134  1  0
 58135  1  0
 58136  1  0
 59137  1  0
 59138  1  0
 60139  1  0
 61140  1  0
 62141  1  0
 70142  1  0
 71143  1  0
 72144  1  0
 73145  1  0
 74146  1  0
 75147  1  0
 76148  1  0
 77149  1  0
 78150  1  0
M  END
>  <ALOGPS_LOGP>  (1) 
3.10

>  <ALOGPS_LOGS>  (1) 
-5.04

>  <ALOGPS_SOLUBILITY>  (1) 
1.03e-02 g/l

>  <DATABASE_ID>  (1) 
DB04894

>  <DATABASE_NAME>  (1) 
drugbank

>  <DRUGBANK_ID>  (1) 
DB04894

>  <DRUG_GROUPS>  (1) 
approved; investigational

>  <EXACT_MASS>  (1) 
1130.48301423

>  <FORMULA>  (1) 
C57H70N12O9S2

>  <GENERIC_NAME>  (1) 
Vapreotide

>  <INCHI_IDENTIFIER>  (1) 
InChI=1S/C57H70N12O9S2/c1-32(2)49-57(78)68-48(55(76)64-44(50(60)71)26-35-28-61-41-16-8-6-14-38(35)41)31-80-79-30-47(67-51(72)40(59)24-33-12-4-3-5-13-33)56(77)65-45(25-34-19-21-37(70)22-20-34)53(74)66-46(27-36-29-62-42-17-9-7-15-39(36)42)54(75)63-43(52(73)69-49)18-10-11-23-58/h3-9,12-17,19-22,28-29,32,40,43-49,61-62,70H,10-11,18,23-27,30-31,58-59H2,1-2H3,(H2,60,71)(H,63,75)(H,64,76)(H,65,77)(H,66,74)(H,67,72)(H,68,78)(H,69,73)/t40-,43+,44+,45+,46-,47+,48+,49+/m1/s1

>  <INCHI_KEY>  (1) 
SWXOGPJRIDTIRL-DOUNNPEJSA-N

>  <INTERNATIONAL_BRANDS>  (1) 
Octastatin; Sanvar; Sanvar IR

>  <JCHEM_ACCEPTOR_COUNT>  (1) 
19

>  <JCHEM_ATOM_COUNT>  (1) 
150

>  <JCHEM_AVERAGE_POLARIZABILITY>  (1) 
117.60013275455447

>  <JCHEM_BIOAVAILABILITY>  (1) 
0

>  <JCHEM_DONOR_COUNT>  (1) 
14

>  <JCHEM_FORMAL_CHARGE>  (1) 
0

>  <JCHEM_GHOSE_FILTER>  (1) 
0

>  <JCHEM_IUPAC>  (1) 
(2R)-2-amino-N-[(4R,7S,10S,13R,16S,19R)-10-(4-aminobutyl)-6,9,12,15,18-pentahydroxy-4-{[(1S)-1-(C-hydroxycarbonimidoyl)-2-(1H-indol-3-yl)ethyl]-C-hydroxycarbonimidoyl}-16-[(4-hydroxyphenyl)methyl]-13-[(1H-indol-3-yl)methyl]-7-(propan-2-yl)-1,2-dithia-5,8,11,14,17-pentaazacycloicosa-5,8,11,14,17-pentaen-19-yl]-3-phenylpropanimidic acid

>  <JCHEM_LOGP>  (1) 
8.474943242999998

>  <JCHEM_MDDR_LIKE_RULE>  (1) 
1

>  <JCHEM_NUMBER_OF_RINGS>  (1) 
7

>  <JCHEM_PHYSIOLOGICAL_CHARGE>  (1) 
2

>  <JCHEM_PKA>  (1) 
3.2451284089931254

>  <JCHEM_PKA_STRONGEST_ACIDIC>  (1) 
2.81973940023727

>  <JCHEM_POLAR_SURFACE_AREA>  (1) 
376.0600000000001

>  <JCHEM_REFRACTIVITY>  (1) 
320.8046999999999

>  <JCHEM_ROTATABLE_BOND_COUNT>  (1) 
18

>  <JCHEM_RULE_OF_FIVE>  (1) 
0

>  <JCHEM_TRADITIONAL_IUPAC>  (1) 
(2R)-2-amino-N-[(4R,7S,10S,13R,16S,19R)-10-(4-aminobutyl)-6,9,12,15,18-pentahydroxy-4-{[(1S)-1-(C-hydroxycarbonimidoyl)-2-(1H-indol-3-yl)ethyl]-C-hydroxycarbonimidoyl}-16-[(4-hydroxyphenyl)methyl]-13-(1H-indol-3-ylmethyl)-7-isopropyl-1,2-dithia-5,8,11,14,17-pentaazacycloicosa-5,8,11,14,17-pentaen-19-yl]-3-phenylpropanimidic acid

>  <JCHEM_VEBER_RULE>  (1) 
0

>  <MOLECULAR_WEIGHT>  (1) 
1131.38

>  <SALTS>  (1) 
Vapreotide acetate

>  <SMILES>  (1) 
[H][C@@](N)(CC1=CC=CC=C1)C(O)=N[C@@]1([H])CSSC[C@]([H])(N=C(O)[C@@]([H])(N=C(O)[C@]([H])(CCCCN)N=C(O)[C@@]([H])(CC2=CNC3=CC=CC=C23)N=C(O)[C@]([H])(CC2=CC=C(O)C=C2)N=C1O)C(C)C)C(O)=N[C@@]([H])(CC1=CNC2=CC=CC=C12)C(O)=N

>  <SYNONYMS>  (1) 
Vapreotida; Vapreotidum

$$$$
