
     RDKit          2D

 38 39  0  0  0  0  0  0  0  0999 V2000
    3.1261    1.6146    0.0000 S   0  0  0  0  0  0  0  0  0  0  0  0
    3.7935   -2.1704    0.0000 O   0  0  0  0  0  0  0  0  0  0  0  0
    2.0756    2.9805    0.0000 O   0  0  0  0  0  0  0  0  0  0  0  0
    3.2316    3.8204    0.0000 O   0  0  0  0  0  0  0  0  0  0  0  0
    4.4610    1.6146    0.0000 N   0  0  0  0  0  0  0  0  0  0  0  0
    1.6500   -1.7579    0.0000 N   0  0  0  0  0  0  0  0  0  0  0  0
    4.5080   -3.4079    0.0000 C   0  0  0  0  0  0  0  0  0  0  0  0
    4.5080   -2.5829    0.0000 C   0  0  0  0  0  0  0  0  0  0  0  0
    5.2224   -3.8204    0.0000 C   0  0  0  0  0  0  0  0  0  0  0  0
    3.7935   -3.8204    0.0000 C   0  0  0  0  0  0  0  0  0  0  0  0
    3.7935   -1.3454    0.0000 C   0  0  0  0  0  0  0  0  0  0  0  0
    3.7935    0.3047    0.0000 C   0  0  0  0  0  0  0  0  0  0  0  0
    3.0791   -0.9328    0.0000 C   0  0  0  0  0  0  0  0  0  0  0  0
    4.5080   -0.9328    0.0000 C   0  0  0  0  0  0  0  0  0  0  0  0
    3.0791   -0.1078    0.0000 C   0  0  0  0  0  0  0  0  0  0  0  0
    4.5080   -0.1078    0.0000 C   0  0  0  0  0  0  0  0  0  0  0  0
    3.7935    1.1297    0.0000 C   0  0  0  0  0  0  0  0  0  0  0  0
    4.2060    2.3992    0.0000 C   0  0  0  0  0  0  0  0  0  0  0  0
    3.3810    2.3992    0.0000 C   0  0  0  0  0  0  0  0  0  0  0  0
    4.6910    3.0668    0.0000 C   0  0  0  0  0  0  0  0  0  0  0  0
    2.3645   -1.3454    0.0000 C   0  0  0  0  0  0  0  0  0  0  0  0
    2.8961    3.0668    0.0000 C   0  0  0  0  0  0  0  0  0  0  0  0
    0.0000    0.0000    0.0000 H   0  0  0  0  0  0  0  0  0  0  0  0
    0.0000    0.0000    0.0000 H   0  0  0  0  0  0  0  0  0  0  0  0
    0.0000    0.0000    0.0000 H   0  0  0  0  0  0  0  0  0  0  0  0
    0.0000    0.0000    0.0000 H   0  0  0  0  0  0  0  0  0  0  0  0
    0.0000    0.0000    0.0000 H   0  0  0  0  0  0  0  0  0  0  0  0
    0.0000    0.0000    0.0000 H   0  0  0  0  0  0  0  0  0  0  0  0
    0.0000    0.0000    0.0000 H   0  0  0  0  0  0  0  0  0  0  0  0
    0.0000    0.0000    0.0000 H   0  0  0  0  0  0  0  0  0  0  0  0
    0.0000    0.0000    0.0000 H   0  0  0  0  0  0  0  0  0  0  0  0
    0.0000    0.0000    0.0000 H   0  0  0  0  0  0  0  0  0  0  0  0
    0.0000    0.0000    0.0000 H   0  0  0  0  0  0  0  0  0  0  0  0
    0.0000    0.0000    0.0000 H   0  0  0  0  0  0  0  0  0  0  0  0
    0.0000    0.0000    0.0000 H   0  0  0  0  0  0  0  0  0  0  0  0
    0.0000    0.0000    0.0000 H   0  0  0  0  0  0  0  0  0  0  0  0
    0.0000    0.0000    0.0000 H   0  0  0  0  0  0  0  0  0  0  0  0
    0.0000    0.0000    0.0000 H   0  0  0  0  0  0  0  0  0  0  0  0
  1 17  1  0
  1 19  1  0
  2  8  1  0
  2 11  1  0
  3 22  1  0
  4 22  2  0
  5 17  2  0
  5 18  1  0
  6 21  3  0
  7  8  1  0
  7  9  1  0
  7 10  1  0
 11 13  2  0
 11 14  1  0
 12 15  2  0
 12 16  1  0
 12 17  1  0
 13 15  1  0
 13 21  1  0
 14 16  2  0
 18 19  2  0
 18 20  1  0
 19 22  1  0
  3 23  1  0
  7 24  1  0
  8 25  1  0
  8 26  1  0
  9 27  1  0
  9 28  1  0
  9 29  1  0
 10 30  1  0
 10 31  1  0
 10 32  1  0
 14 33  1  0
 15 34  1  0
 16 35  1  0
 20 36  1  0
 20 37  1  0
 20 38  1  0
M  END
>  <ALOGPS_LOGP>  (1) 
3.80

>  <ALOGPS_LOGS>  (1) 
-4.24

>  <ALOGPS_SOLUBILITY>  (1) 
1.83e-02 g/l

>  <DATABASE_ID>  (1) 
DB04854

>  <DATABASE_NAME>  (1) 
drugbank

>  <DRUGBANK_ID>  (1) 
DB04854

>  <DRUG_GROUPS>  (1) 
approved

>  <EXACT_MASS>  (1) 
316.088163078

>  <FORMULA>  (1) 
C16H16N2O3S

>  <GENERIC_NAME>  (1) 
Febuxostat

>  <INCHI_IDENTIFIER>  (1) 
InChI=1S/C16H16N2O3S/c1-9(2)8-21-13-5-4-11(6-12(13)7-17)15-18-10(3)14(22-15)16(19)20/h4-6,9H,8H2,1-3H3,(H,19,20)

>  <INCHI_KEY>  (1) 
BQSJTQLCZDPROO-UHFFFAOYSA-N

>  <INTERNATIONAL_BRANDS>  (1) 
Adenuric; Atenurix; Barif; Feburic

>  <JCHEM_ACCEPTOR_COUNT>  (1) 
5

>  <JCHEM_AVERAGE_POLARIZABILITY>  (1) 
33.88019656821729

>  <JCHEM_BIOAVAILABILITY>  (1) 
1

>  <JCHEM_DONOR_COUNT>  (1) 
1

>  <JCHEM_FORMAL_CHARGE>  (1) 
0

>  <JCHEM_GHOSE_FILTER>  (1) 
1

>  <JCHEM_IUPAC>  (1) 
2-[3-cyano-4-(2-methylpropoxy)phenyl]-4-methyl-1,3-thiazole-5-carboxylic acid

>  <JCHEM_LOGP>  (1) 
3.520929441333333

>  <JCHEM_MDDR_LIKE_RULE>  (1) 
0

>  <JCHEM_NUMBER_OF_RINGS>  (1) 
2

>  <JCHEM_PHYSIOLOGICAL_CHARGE>  (1) 
-1

>  <JCHEM_PKA_STRONGEST_ACIDIC>  (1) 
3.0782740305720346

>  <JCHEM_PKA_STRONGEST_BASIC>  (1) 
0.39479959157958755

>  <JCHEM_POLAR_SURFACE_AREA>  (1) 
83.21000000000001

>  <JCHEM_REFRACTIVITY>  (1) 
93.92880000000002

>  <JCHEM_ROTATABLE_BOND_COUNT>  (1) 
5

>  <JCHEM_RULE_OF_FIVE>  (1) 
1

>  <JCHEM_TRADITIONAL_IUPAC>  (1) 
febuxostat

>  <JCHEM_VEBER_RULE>  (1) 
0

>  <MOLECULAR_WEIGHT>  (1) 
316.375

>  <PRODUCTS>  (1) 
Adenuric; Febuxostat; Uloric

>  <SECONDARY_ACCESSION_NUMBERS>  (1) 
DB03786

>  <SMILES>  (1) 
CC(C)COC1=C(C=C(C=C1)C1=NC(C)=C(S1)C(O)=O)C#N

>  <SYNONYMS>  (1) 
2-(3-cyano-4-isobutoxyphenyl)-4-methyl- 1,3-thiazole-5-carboxylic acid; FÃ©buxostat; Febuxostat; Febuxostatum

$$$$
