
     RDKit          2D

 51 53  0  0  1  0  0  0  0  0999 V2000
    4.5080   -0.5082    0.0000 O   0  0  0  0  0  0  0  0  0  0  0  0
    3.3810    0.0148    0.0000 O   0  0  0  0  0  0  0  0  0  0  0  0
    5.2224    0.7293    0.0000 O   0  0  0  0  0  0  0  0  0  0  0  0
    5.9370   -2.1582    0.0000 N   0  0  0  0  0  0  0  0  0  0  0  0
    5.2224   -1.7457    0.0000 C   0  0  0  0  0  0  0  0  0  0  0  0
    6.6515   -1.7457    0.0000 C   0  0  0  0  0  0  0  0  0  0  0  0
    5.2224   -0.9207    0.0000 C   0  0  0  0  0  0  0  0  0  0  0  0
    6.6515   -0.9207    0.0000 C   0  0  0  0  0  0  0  0  0  0  0  0
    5.9370   -0.5082    0.0000 C   0  0  0  0  0  0  0  0  0  0  0  0
    5.5245   -2.8728    0.0000 C   0  0  0  0  0  0  0  0  0  0  0  0
    6.3495   -2.8728    0.0000 C   0  0  0  0  0  0  0  0  0  0  0  0
    4.5080    0.3168    0.0000 C   0  0  0  0  0  0  0  0  0  0  0  0
    3.7935    0.7293    0.0000 C   0  0  0  0  0  0  0  0  0  0  0  0
    3.0791    1.1418    0.0000 C   0  0  0  0  0  0  0  0  0  0  0  0
    4.2060    1.4438    0.0000 C   0  0  0  0  0  0  0  0  0  0  0  0
    2.3645    0.7293    0.0000 C   0  0  0  0  0  0  0  0  0  0  0  0
    3.7935    2.1582    0.0000 C   0  0  0  0  0  0  0  0  0  0  0  0
    3.0791    1.9668    0.0000 C   0  0  0  0  0  0  0  0  0  0  0  0
    5.0310    1.4438    0.0000 C   0  0  0  0  0  0  0  0  0  0  0  0
    1.6500    1.1418    0.0000 C   0  0  0  0  0  0  0  0  0  0  0  0
    4.2060    2.8728    0.0000 C   0  0  0  0  0  0  0  0  0  0  0  0
    2.3645    2.3794    0.0000 C   0  0  0  0  0  0  0  0  0  0  0  0
    5.4436    2.1582    0.0000 C   0  0  0  0  0  0  0  0  0  0  0  0
    1.6500    1.9668    0.0000 C   0  0  0  0  0  0  0  0  0  0  0  0
    5.0310    2.8728    0.0000 C   0  0  0  0  0  0  0  0  0  0  0  0
    0.0000    0.0000    0.0000 H   0  0  0  0  0  0  0  0  0  0  0  0
    0.0000    0.0000    0.0000 H   0  0  0  0  0  0  0  0  0  0  0  0
    0.0000    0.0000    0.0000 H   0  0  0  0  0  0  0  0  0  0  0  0
    0.0000    0.0000    0.0000 H   0  0  0  0  0  0  0  0  0  0  0  0
    0.0000    0.0000    0.0000 H   0  0  0  0  0  0  0  0  0  0  0  0
    0.0000    0.0000    0.0000 H   0  0  0  0  0  0  0  0  0  0  0  0
    0.0000    0.0000    0.0000 H   0  0  0  0  0  0  0  0  0  0  0  0
    0.0000    0.0000    0.0000 H   0  0  0  0  0  0  0  0  0  0  0  0
    0.0000    0.0000    0.0000 H   0  0  0  0  0  0  0  0  0  0  0  0
    0.0000    0.0000    0.0000 H   0  0  0  0  0  0  0  0  0  0  0  0
    0.0000    0.0000    0.0000 H   0  0  0  0  0  0  0  0  0  0  0  0
    0.0000    0.0000    0.0000 H   0  0  0  0  0  0  0  0  0  0  0  0
    0.0000    0.0000    0.0000 H   0  0  0  0  0  0  0  0  0  0  0  0
    0.0000    0.0000    0.0000 H   0  0  0  0  0  0  0  0  0  0  0  0
    0.0000    0.0000    0.0000 H   0  0  0  0  0  0  0  0  0  0  0  0
    0.0000    0.0000    0.0000 H   0  0  0  0  0  0  0  0  0  0  0  0
    0.0000    0.0000    0.0000 H   0  0  0  0  0  0  0  0  0  0  0  0
    0.0000    0.0000    0.0000 H   0  0  0  0  0  0  0  0  0  0  0  0
    0.0000    0.0000    0.0000 H   0  0  0  0  0  0  0  0  0  0  0  0
    0.0000    0.0000    0.0000 H   0  0  0  0  0  0  0  0  0  0  0  0
    0.0000    0.0000    0.0000 H   0  0  0  0  0  0  0  0  0  0  0  0
    0.0000    0.0000    0.0000 H   0  0  0  0  0  0  0  0  0  0  0  0
    0.0000    0.0000    0.0000 H   0  0  0  0  0  0  0  0  0  0  0  0
    0.0000    0.0000    0.0000 H   0  0  0  0  0  0  0  0  0  0  0  0
    0.0000    0.0000    0.0000 H   0  0  0  0  0  0  0  0  0  0  0  0
    0.0000    0.0000    0.0000 H   0  0  0  0  0  0  0  0  0  0  0  0
  1  7  1  0
  1 12  1  0
  2 13  1  0
  3 12  2  0
  4  5  1  0
  4  6  1  0
  4 10  1  0
  4 11  1  0
  5  7  1  0
  6  8  1  0
  7  9  1  0
  8  9  1  0
 12 13  1  0
 13 14  1  0
 13 15  1  0
 14 16  2  0
 14 18  1  0
 15 17  2  0
 15 19  1  0
 16 20  1  0
 17 21  1  0
 18 22  2  0
 19 23  2  0
 20 24  2  0
 21 25  2  0
 22 24  1  0
 23 25  1  0
  2 26  1  0
  5 27  1  0
  5 28  1  0
  6 29  1  0
  6 30  1  0
  7 31  1  0
  8 32  1  0
  8 33  1  0
  9 34  1  0
  9 35  1  0
 10 36  1  0
 10 37  1  0
 10 38  1  0
 11 39  1  0
 11 40  1  0
 11 41  1  0
 16 42  1  0
 17 43  1  0
 18 44  1  0
 19 45  1  0
 20 46  1  0
 21 47  1  0
 22 48  1  0
 23 49  1  0
 24 50  1  0
 25 51  1  0
M  CHG  1   4   1
M  END
>  <ALOGPS_LOGP>  (1) 
-1.14

>  <ALOGPS_LOGS>  (1) 
-5.78

>  <ALOGPS_SOLUBILITY>  (1) 
6.27e-04 g/l

>  <DATABASE_ID>  (1) 
DB04843

>  <DATABASE_NAME>  (1) 
drugbank

>  <DRUGBANK_ID>  (1) 
DB04843

>  <DRUG_GROUPS>  (1) 
approved

>  <EXACT_MASS>  (1) 
340.191268703

>  <FORMULA>  (1) 
C21H26NO3

>  <GENERIC_NAME>  (1) 
Mepenzolate

>  <INCHI_IDENTIFIER>  (1) 
InChI=1S/C21H26NO3/c1-22(2)15-9-14-19(16-22)25-20(23)21(24,17-10-5-3-6-11-17)18-12-7-4-8-13-18/h3-8,10-13,19,24H,9,14-16H2,1-2H3/q+1

>  <INCHI_KEY>  (1) 
GKNPSSNBBWDAGH-UHFFFAOYSA-N

>  <JCHEM_ACCEPTOR_COUNT>  (1) 
2

>  <JCHEM_AVERAGE_POLARIZABILITY>  (1) 
37.75993896227578

>  <JCHEM_BIOAVAILABILITY>  (1) 
1

>  <JCHEM_DONOR_COUNT>  (1) 
1

>  <JCHEM_FORMAL_CHARGE>  (1) 
1

>  <JCHEM_GHOSE_FILTER>  (1) 
0

>  <JCHEM_IUPAC>  (1) 
3-[(2-hydroxy-2,2-diphenylacetyl)oxy]-1,1-dimethylpiperidin-1-ium

>  <JCHEM_LOGP>  (1) 
-0.9746864134717452

>  <JCHEM_MDDR_LIKE_RULE>  (1) 
0

>  <JCHEM_NUMBER_OF_RINGS>  (1) 
3

>  <JCHEM_PHYSIOLOGICAL_CHARGE>  (1) 
1

>  <JCHEM_PKA_STRONGEST_ACIDIC>  (1) 
11.047589145733243

>  <JCHEM_PKA_STRONGEST_BASIC>  (1) 
-4.52758450765628

>  <JCHEM_POLAR_SURFACE_AREA>  (1) 
46.53

>  <JCHEM_REFRACTIVITY>  (1) 
109.39510000000004

>  <JCHEM_ROTATABLE_BOND_COUNT>  (1) 
5

>  <JCHEM_RULE_OF_FIVE>  (1) 
1

>  <JCHEM_TRADITIONAL_IUPAC>  (1) 
mepenzolate

>  <JCHEM_VEBER_RULE>  (1) 
0

>  <MOLECULAR_WEIGHT>  (1) 
340.436

>  <PRODUCTS>  (1) 
Cantil

>  <SALTS>  (1) 
Mepenzolate bromide

>  <SMILES>  (1) 
C[N+]1(C)CCCC(C1)OC(=O)C(O)(C1=CC=CC=C1)C1=CC=CC=C1

$$$$
