
     RDKit          2D

 51 53  0  0  0  0  0  0  0  0999 V2000
    5.9962    1.0807    0.0000 O   0  0  0  0  0  0  0  0  0  0  0  0
    9.5605   -0.9956    0.0000 O   0  0  0  0  0  0  0  0  0  0  0  0
    8.8413   -2.2303    0.0000 O   0  0  0  0  0  0  0  0  0  0  0  0
    5.2769   -0.1541    0.0000 N   0  0  0  0  0  0  0  0  0  0  0  0
    2.3645   -0.1341    0.0000 C   0  0  0  0  0  0  0  0  0  0  0  0
    2.3645    1.5159    0.0000 C   0  0  0  0  0  0  0  0  0  0  0  0
    1.6500    0.2784    0.0000 C   0  0  0  0  0  0  0  0  0  0  0  0
    1.6500    1.1034    0.0000 C   0  0  0  0  0  0  0  0  0  0  0  0
    3.0790    0.2784    0.0000 C   0  0  0  0  0  0  0  0  0  0  0  0
    3.0790    1.1034    0.0000 C   0  0  0  0  0  0  0  0  0  0  0  0
    1.9520   -0.8486    0.0000 C   0  0  0  0  0  0  0  0  0  0  0  0
    2.7770   -0.8486    0.0000 C   0  0  0  0  0  0  0  0  0  0  0  0
    1.9520    2.2303    0.0000 C   0  0  0  0  0  0  0  0  0  0  0  0
    2.7770    2.2303    0.0000 C   0  0  0  0  0  0  0  0  0  0  0  0
    3.8165   -0.1628    0.0000 C   0  0  0  0  0  0  0  0  0  0  0  0
    3.8165    1.5445    0.0000 C   0  0  0  0  0  0  0  0  0  0  0  0
    4.5640    0.2612    0.0000 C   0  0  0  0  0  0  0  0  0  0  0  0
    4.5640    1.1205    0.0000 C   0  0  0  0  0  0  0  0  0  0  0  0
    5.9929    0.2557    0.0000 C   0  0  0  0  0  0  0  0  0  0  0  0
    6.7058   -0.1596    0.0000 C   0  0  0  0  0  0  0  0  0  0  0  0
    7.4219    0.2501    0.0000 C   0  0  0  0  0  0  0  0  0  0  0  0
    6.7026   -0.9846    0.0000 C   0  0  0  0  0  0  0  0  0  0  0  0
    8.1347   -0.1651    0.0000 C   0  0  0  0  0  0  0  0  0  0  0  0
    7.4155   -1.3999    0.0000 C   0  0  0  0  0  0  0  0  0  0  0  0
    8.1316   -0.9901    0.0000 C   0  0  0  0  0  0  0  0  0  0  0  0
    8.8445   -1.4053    0.0000 C   0  0  0  0  0  0  0  0  0  0  0  0
    0.0000    0.0000    0.0000 H   0  0  0  0  0  0  0  0  0  0  0  0
    0.0000    0.0000    0.0000 H   0  0  0  0  0  0  0  0  0  0  0  0
    0.0000    0.0000    0.0000 H   0  0  0  0  0  0  0  0  0  0  0  0
    0.0000    0.0000    0.0000 H   0  0  0  0  0  0  0  0  0  0  0  0
    0.0000    0.0000    0.0000 H   0  0  0  0  0  0  0  0  0  0  0  0
    0.0000    0.0000    0.0000 H   0  0  0  0  0  0  0  0  0  0  0  0
    0.0000    0.0000    0.0000 H   0  0  0  0  0  0  0  0  0  0  0  0
    0.0000    0.0000    0.0000 H   0  0  0  0  0  0  0  0  0  0  0  0
    0.0000    0.0000    0.0000 H   0  0  0  0  0  0  0  0  0  0  0  0
    0.0000    0.0000    0.0000 H   0  0  0  0  0  0  0  0  0  0  0  0
    0.0000    0.0000    0.0000 H   0  0  0  0  0  0  0  0  0  0  0  0
    0.0000    0.0000    0.0000 H   0  0  0  0  0  0  0  0  0  0  0  0
    0.0000    0.0000    0.0000 H   0  0  0  0  0  0  0  0  0  0  0  0
    0.0000    0.0000    0.0000 H   0  0  0  0  0  0  0  0  0  0  0  0
    0.0000    0.0000    0.0000 H   0  0  0  0  0  0  0  0  0  0  0  0
    0.0000    0.0000    0.0000 H   0  0  0  0  0  0  0  0  0  0  0  0
    0.0000    0.0000    0.0000 H   0  0  0  0  0  0  0  0  0  0  0  0
    0.0000    0.0000    0.0000 H   0  0  0  0  0  0  0  0  0  0  0  0
    0.0000    0.0000    0.0000 H   0  0  0  0  0  0  0  0  0  0  0  0
    0.0000    0.0000    0.0000 H   0  0  0  0  0  0  0  0  0  0  0  0
    0.0000    0.0000    0.0000 H   0  0  0  0  0  0  0  0  0  0  0  0
    0.0000    0.0000    0.0000 H   0  0  0  0  0  0  0  0  0  0  0  0
    0.0000    0.0000    0.0000 H   0  0  0  0  0  0  0  0  0  0  0  0
    0.0000    0.0000    0.0000 H   0  0  0  0  0  0  0  0  0  0  0  0
    0.0000    0.0000    0.0000 H   0  0  0  0  0  0  0  0  0  0  0  0
  1 19  2  0
  2 26  1  0
  3 26  2  0
  4 17  1  0
  4 19  1  0
  5  7  1  0
  5  9  1  0
  5 11  1  0
  5 12  1  0
  6  8  1  0
  6 10  1  0
  6 13  1  0
  6 14  1  0
  7  8  1  0
  9 10  2  0
  9 15  1  0
 10 16  1  0
 15 17  2  0
 16 18  2  0
 17 18  1  0
 19 20  1  0
 20 21  2  0
 20 22  1  0
 21 23  1  0
 22 24  2  0
 23 25  2  0
 24 25  1  0
 25 26  1  0
  2 27  1  0
  4 28  1  0
  7 29  1  0
  7 30  1  0
  8 31  1  0
  8 32  1  0
 11 33  1  0
 11 34  1  0
 11 35  1  0
 12 36  1  0
 12 37  1  0
 12 38  1  0
 13 39  1  0
 13 40  1  0
 13 41  1  0
 14 42  1  0
 14 43  1  0
 14 44  1  0
 15 45  1  0
 16 46  1  0
 18 47  1  0
 21 48  1  0
 22 49  1  0
 23 50  1  0
 24 51  1  0
M  END
>  <ALOGPS_LOGP>  (1) 
4.99

>  <ALOGPS_LOGS>  (1) 
-5.79

>  <ALOGPS_SOLUBILITY>  (1) 
5.75e-04 g/l

>  <DATABASE_ID>  (1) 
DB04942

>  <DATABASE_NAME>  (1) 
drugbank

>  <DRUGBANK_ID>  (1) 
DB04942

>  <DRUG_GROUPS>  (1) 
approved; investigational

>  <EXACT_MASS>  (1) 
351.183443671

>  <FORMULA>  (1) 
C22H25NO3

>  <GENERIC_NAME>  (1) 
Tamibarotene

>  <INCHI_IDENTIFIER>  (1) 
InChI=1S/C22H25NO3/c1-21(2)11-12-22(3,4)18-13-16(9-10-17(18)21)23-19(24)14-5-7-15(8-6-14)20(25)26/h5-10,13H,11-12H2,1-4H3,(H,23,24)(H,25,26)

>  <INCHI_KEY>  (1) 
MUTNCGKQJGXKEM-UHFFFAOYSA-N

>  <INTERNATIONAL_BRANDS>  (1) 
Amnoid; Tamibaro

>  <JCHEM_ACCEPTOR_COUNT>  (1) 
3

>  <JCHEM_AVERAGE_POLARIZABILITY>  (1) 
39.16348533361369

>  <JCHEM_BIOAVAILABILITY>  (1) 
1

>  <JCHEM_DONOR_COUNT>  (1) 
2

>  <JCHEM_FORMAL_CHARGE>  (1) 
0

>  <JCHEM_GHOSE_FILTER>  (1) 
1

>  <JCHEM_IUPAC>  (1) 
4-[(5,5,8,8-tetramethyl-5,6,7,8-tetrahydronaphthalen-2-yl)carbamoyl]benzoic acid

>  <JCHEM_LOGP>  (1) 
5.349100168333335

>  <JCHEM_MDDR_LIKE_RULE>  (1) 
0

>  <JCHEM_NUMBER_OF_RINGS>  (1) 
3

>  <JCHEM_PHYSIOLOGICAL_CHARGE>  (1) 
-1

>  <JCHEM_PKA>  (1) 
12.458566925713676

>  <JCHEM_PKA_STRONGEST_ACIDIC>  (1) 
3.693783000823111

>  <JCHEM_PKA_STRONGEST_BASIC>  (1) 
-4.0306430501291635

>  <JCHEM_POLAR_SURFACE_AREA>  (1) 
66.39999999999999

>  <JCHEM_REFRACTIVITY>  (1) 
104.37729999999999

>  <JCHEM_ROTATABLE_BOND_COUNT>  (1) 
3

>  <JCHEM_RULE_OF_FIVE>  (1) 
0

>  <JCHEM_TRADITIONAL_IUPAC>  (1) 
tamibarotene

>  <JCHEM_VEBER_RULE>  (1) 
0

>  <MOLECULAR_WEIGHT>  (1) 
351.4388

>  <SECONDARY_ACCESSION_NUMBERS>  (1) 
EXPT00376; DB03873

>  <SMILES>  (1) 
CC1(C)CCC(C)(C)C2=C1C=CC(NC(=O)C1=CC=C(C=C1)C(O)=O)=C2

>  <SYNONYMS>  (1) 
retinobenzoic acid

$$$$
