
     RDKit          2D

 28 29  0  0  1  0  0  0  0  0999 V2000
    4.5080   -0.8410    0.0000 Cl  0  0  0  0  0  0  0  0  0  0  0  0
    1.6500   -0.8410    0.0000 Cl  0  0  0  0  0  0  0  0  0  0  0  0
    3.0791   -0.0160    0.0000 O   0  0  0  0  0  0  0  0  0  0  0  0
    3.1261    1.7065    0.0000 N   0  0  0  0  0  0  0  0  0  0  0  0
    4.4610    1.7065    0.0000 N   0  0  0  0  0  0  0  0  0  0  0  0
    3.7935    0.3965    0.0000 C   0  0  0  0  0  0  0  0  0  0  0  0
    3.7935    1.2215    0.0000 C   0  0  0  0  0  0  0  0  0  0  0  0
    3.3810    2.4911    0.0000 C   0  0  0  0  0  0  0  0  0  0  0  0
    4.2060    2.4911    0.0000 C   0  0  0  0  0  0  0  0  0  0  0  0
    4.5080   -0.0160    0.0000 C   0  0  0  0  0  0  0  0  0  0  0  0
    3.0791   -0.8410    0.0000 C   0  0  0  0  0  0  0  0  0  0  0  0
    3.7935   -1.2535    0.0000 C   0  0  0  0  0  0  0  0  0  0  0  0
    2.3645   -1.2535    0.0000 C   0  0  0  0  0  0  0  0  0  0  0  0
    3.7935   -2.0786    0.0000 C   0  0  0  0  0  0  0  0  0  0  0  0
    2.3645   -2.0786    0.0000 C   0  0  0  0  0  0  0  0  0  0  0  0
    3.0791   -2.4911    0.0000 C   0  0  0  0  0  0  0  0  0  0  0  0
    0.0000    0.0000    0.0000 H   0  0  0  0  0  0  0  0  0  0  0  0
    0.0000    0.0000    0.0000 H   0  0  0  0  0  0  0  0  0  0  0  0
    0.0000    0.0000    0.0000 H   0  0  0  0  0  0  0  0  0  0  0  0
    0.0000    0.0000    0.0000 H   0  0  0  0  0  0  0  0  0  0  0  0
    0.0000    0.0000    0.0000 H   0  0  0  0  0  0  0  0  0  0  0  0
    0.0000    0.0000    0.0000 H   0  0  0  0  0  0  0  0  0  0  0  0
    0.0000    0.0000    0.0000 H   0  0  0  0  0  0  0  0  0  0  0  0
    0.0000    0.0000    0.0000 H   0  0  0  0  0  0  0  0  0  0  0  0
    0.0000    0.0000    0.0000 H   0  0  0  0  0  0  0  0  0  0  0  0
    0.0000    0.0000    0.0000 H   0  0  0  0  0  0  0  0  0  0  0  0
    0.0000    0.0000    0.0000 H   0  0  0  0  0  0  0  0  0  0  0  0
    0.0000    0.0000    0.0000 H   0  0  0  0  0  0  0  0  0  0  0  0
  1 12  1  0
  2 13  1  0
  3  6  1  0
  3 11  1  0
  4  7  1  0
  4  8  1  0
  5  7  2  0
  5  9  1  0
  6  7  1  0
  6 10  1  0
  8  9  1  0
 11 12  2  0
 11 13  1  0
 12 14  1  0
 13 15  2  0
 14 16  2  0
 15 16  1  0
  4 17  1  0
  6 18  1  0
  8 19  1  0
  8 20  1  0
  9 21  1  0
  9 22  1  0
 10 23  1  0
 10 24  1  0
 10 25  1  0
 14 26  1  0
 15 27  1  0
 16 28  1  0
M  END
>  <ALOGPS_LOGP>  (1) 
3.31

>  <ALOGPS_LOGS>  (1) 
-3.25

>  <ALOGPS_SOLUBILITY>  (1) 
1.47e-01 g/l

>  <DATABASE_ID>  (1) 
DB04948

>  <DATABASE_NAME>  (1) 
drugbank

>  <DRUGBANK_ID>  (1) 
DB04948

>  <DRUG_GROUPS>  (1) 
approved; investigational

>  <EXACT_MASS>  (1) 
258.03266843

>  <FORMULA>  (1) 
C11H12Cl2N2O

>  <GENERIC_NAME>  (1) 
Lofexidine

>  <INCHI_IDENTIFIER>  (1) 
InChI=1S/C11H12Cl2N2O/c1-7(11-14-5-6-15-11)16-10-8(12)3-2-4-9(10)13/h2-4,7H,5-6H2,1H3,(H,14,15)

>  <INCHI_KEY>  (1) 
KSMAGQUYOIHWFS-UHFFFAOYSA-N

>  <INTERNATIONAL_BRANDS>  (1) 
Britlofex

>  <JCHEM_ACCEPTOR_COUNT>  (1) 
3

>  <JCHEM_AVERAGE_POLARIZABILITY>  (1) 
25.111456986145203

>  <JCHEM_BIOAVAILABILITY>  (1) 
1

>  <JCHEM_DONOR_COUNT>  (1) 
1

>  <JCHEM_FORMAL_CHARGE>  (1) 
0

>  <JCHEM_GHOSE_FILTER>  (1) 
1

>  <JCHEM_IUPAC>  (1) 
2-[1-(2,6-dichlorophenoxy)ethyl]-4,5-dihydro-1H-imidazole

>  <JCHEM_LOGP>  (1) 
2.663057541333333

>  <JCHEM_MDDR_LIKE_RULE>  (1) 
0

>  <JCHEM_NUMBER_OF_RINGS>  (1) 
2

>  <JCHEM_PHYSIOLOGICAL_CHARGE>  (1) 
1

>  <JCHEM_PKA_STRONGEST_BASIC>  (1) 
7.667410695432359

>  <JCHEM_POLAR_SURFACE_AREA>  (1) 
33.62

>  <JCHEM_REFRACTIVITY>  (1) 
64.41300000000001

>  <JCHEM_ROTATABLE_BOND_COUNT>  (1) 
3

>  <JCHEM_RULE_OF_FIVE>  (1) 
1

>  <JCHEM_TRADITIONAL_IUPAC>  (1) 
lofexidine

>  <JCHEM_VEBER_RULE>  (1) 
1

>  <MOLECULAR_WEIGHT>  (1) 
259.132

>  <SALTS>  (1) 
Lofexidine hydrochloride

>  <SMILES>  (1) 
CC(OC1=C(Cl)C=CC=C1Cl)C1=NCCN1

>  <SYNONYMS>  (1) 
2-(alpha-(2,6-Dichlorophenoxy)ethyl)2-imidazoline; Lofexidina; Lofexidinum

$$$$
