
     RDKit          2D

 58 61  0  0  0  0  0  0  0  0999 V2000
    1.6500   -4.7505    0.0000 F   0  0  0  0  0  0  0  0  0  0  0  0
    4.5741   -4.5894    0.0000 O   0  0  0  0  0  0  0  0  0  0  0  0
    7.4701    0.9997    0.0000 O   0  0  0  0  0  0  0  0  0  0  0  0
    9.0847    1.3399    0.0000 O   0  0  0  0  0  0  0  0  0  0  0  0
    9.3026    4.3065    0.0000 O   0  0  0  0  0  0  0  0  0  0  0  0
    5.3430   -0.9090    0.0000 N   0  0  0  0  0  0  0  0  0  0  0  0
    5.0556   -3.9255    0.0000 N   0  0  0  0  0  0  0  0  0  0  0  0
    4.8304   -2.4773    0.0000 C   0  0  0  0  0  0  0  0  0  0  0  0
    5.6377   -2.3072    0.0000 C   0  0  0  0  0  0  0  0  0  0  0  0
    4.2794   -1.8633    0.0000 C   0  0  0  0  0  0  0  0  0  0  0  0
    5.8939   -1.5230    0.0000 C   0  0  0  0  0  0  0  0  0  0  0  0
    4.5357   -1.0791    0.0000 C   0  0  0  0  0  0  0  0  0  0  0  0
    5.5992   -0.1248    0.0000 C   0  0  0  0  0  0  0  0  0  0  0  0
    4.5741   -3.2615    0.0000 C   0  0  0  0  0  0  0  0  0  0  0  0
    6.4066    0.0454    0.0000 C   0  0  0  0  0  0  0  0  0  0  0  0
    3.7935   -3.5130    0.0000 C   0  0  0  0  0  0  0  0  0  0  0  0
    3.7935   -4.3380    0.0000 C   0  0  0  0  0  0  0  0  0  0  0  0
    6.6628    0.8295    0.0000 C   0  0  0  0  0  0  0  0  0  0  0  0
    3.0790   -3.1005    0.0000 C   0  0  0  0  0  0  0  0  0  0  0  0
    3.0790   -4.7505    0.0000 C   0  0  0  0  0  0  0  0  0  0  0  0
    2.3645   -3.5130    0.0000 C   0  0  0  0  0  0  0  0  0  0  0  0
    2.3645   -4.3380    0.0000 C   0  0  0  0  0  0  0  0  0  0  0  0
    7.7264    1.7838    0.0000 C   0  0  0  0  0  0  0  0  0  0  0  0
    8.5337    1.9539    0.0000 C   0  0  0  0  0  0  0  0  0  0  0  0
    7.1754    2.3979    0.0000 C   0  0  0  0  0  0  0  0  0  0  0  0
    8.7900    2.7382    0.0000 C   0  0  0  0  0  0  0  0  0  0  0  0
    7.4318    3.1821    0.0000 C   0  0  0  0  0  0  0  0  0  0  0  0
    8.2390    3.3523    0.0000 C   0  0  0  0  0  0  0  0  0  0  0  0
    8.4954    4.1364    0.0000 C   0  0  0  0  0  0  0  0  0  0  0  0
    9.8919    1.5101    0.0000 C   0  0  0  0  0  0  0  0  0  0  0  0
    7.9443    4.7505    0.0000 C   0  0  0  0  0  0  0  0  0  0  0  0
    0.0000    0.0000    0.0000 H   0  0  0  0  0  0  0  0  0  0  0  0
    0.0000    0.0000    0.0000 H   0  0  0  0  0  0  0  0  0  0  0  0
    0.0000    0.0000    0.0000 H   0  0  0  0  0  0  0  0  0  0  0  0
    0.0000    0.0000    0.0000 H   0  0  0  0  0  0  0  0  0  0  0  0
    0.0000    0.0000    0.0000 H   0  0  0  0  0  0  0  0  0  0  0  0
    0.0000    0.0000    0.0000 H   0  0  0  0  0  0  0  0  0  0  0  0
    0.0000    0.0000    0.0000 H   0  0  0  0  0  0  0  0  0  0  0  0
    0.0000    0.0000    0.0000 H   0  0  0  0  0  0  0  0  0  0  0  0
    0.0000    0.0000    0.0000 H   0  0  0  0  0  0  0  0  0  0  0  0
    0.0000    0.0000    0.0000 H   0  0  0  0  0  0  0  0  0  0  0  0
    0.0000    0.0000    0.0000 H   0  0  0  0  0  0  0  0  0  0  0  0
    0.0000    0.0000    0.0000 H   0  0  0  0  0  0  0  0  0  0  0  0
    0.0000    0.0000    0.0000 H   0  0  0  0  0  0  0  0  0  0  0  0
    0.0000    0.0000    0.0000 H   0  0  0  0  0  0  0  0  0  0  0  0
    0.0000    0.0000    0.0000 H   0  0  0  0  0  0  0  0  0  0  0  0
    0.0000    0.0000    0.0000 H   0  0  0  0  0  0  0  0  0  0  0  0
    0.0000    0.0000    0.0000 H   0  0  0  0  0  0  0  0  0  0  0  0
    0.0000    0.0000    0.0000 H   0  0  0  0  0  0  0  0  0  0  0  0
    0.0000    0.0000    0.0000 H   0  0  0  0  0  0  0  0  0  0  0  0
    0.0000    0.0000    0.0000 H   0  0  0  0  0  0  0  0  0  0  0  0
    0.0000    0.0000    0.0000 H   0  0  0  0  0  0  0  0  0  0  0  0
    0.0000    0.0000    0.0000 H   0  0  0  0  0  0  0  0  0  0  0  0
    0.0000    0.0000    0.0000 H   0  0  0  0  0  0  0  0  0  0  0  0
    0.0000    0.0000    0.0000 H   0  0  0  0  0  0  0  0  0  0  0  0
    0.0000    0.0000    0.0000 H   0  0  0  0  0  0  0  0  0  0  0  0
    0.0000    0.0000    0.0000 H   0  0  0  0  0  0  0  0  0  0  0  0
    0.0000    0.0000    0.0000 H   0  0  0  0  0  0  0  0  0  0  0  0
  1 22  1  0
  2  7  1  0
  2 17  1  0
  3 18  1  0
  3 23  1  0
  4 24  1  0
  4 30  1  0
  5 29  2  0
  6 11  1  0
  6 12  1  0
  6 13  1  0
  7 14  2  0
  8  9  1  0
  8 10  1  0
  8 14  1  0
  9 11  1  0
 10 12  1  0
 13 15  1  0
 14 16  1  0
 15 18  1  0
 16 17  2  0
 16 19  1  0
 17 20  1  0
 19 21  2  0
 20 22  2  0
 21 22  1  0
 23 24  2  0
 23 25  1  0
 24 26  1  0
 25 27  2  0
 26 28  2  0
 27 28  1  0
 28 29  1  0
 29 31  1  0
  8 32  1  0
  9 33  1  0
  9 34  1  0
 10 35  1  0
 10 36  1  0
 11 37  1  0
 11 38  1  0
 12 39  1  0
 12 40  1  0
 13 41  1  0
 13 42  1  0
 15 43  1  0
 15 44  1  0
 18 45  1  0
 18 46  1  0
 19 47  1  0
 20 48  1  0
 21 49  1  0
 25 50  1  0
 26 51  1  0
 27 52  1  0
 30 53  1  0
 30 54  1  0
 30 55  1  0
 31 56  1  0
 31 57  1  0
 31 58  1  0
M  END
>  <ALOGPS_LOGP>  (1) 
4.26

>  <ALOGPS_LOGS>  (1) 
-4.15

>  <ALOGPS_SOLUBILITY>  (1) 
3.04e-02 g/l

>  <DATABASE_ID>  (1) 
DB04946

>  <DATABASE_NAME>  (1) 
drugbank

>  <DRUGBANK_ID>  (1) 
DB04946

>  <DRUG_GROUPS>  (1) 
approved

>  <EXACT_MASS>  (1) 
426.195485567

>  <FORMULA>  (1) 
C24H27FN2O4

>  <GENERIC_NAME>  (1) 
Iloperidone

>  <INCHI_IDENTIFIER>  (1) 
InChI=1S/C24H27FN2O4/c1-16(28)18-4-7-21(23(14-18)29-2)30-13-3-10-27-11-8-17(9-12-27)24-20-6-5-19(25)15-22(20)31-26-24/h4-7,14-15,17H,3,8-13H2,1-2H3

>  <INCHI_KEY>  (1) 
XMXHEBAFVSFQEX-UHFFFAOYSA-N

>  <JCHEM_ACCEPTOR_COUNT>  (1) 
5

>  <JCHEM_AVERAGE_POLARIZABILITY>  (1) 
46.50926382745109

>  <JCHEM_BIOAVAILABILITY>  (1) 
1

>  <JCHEM_DONOR_COUNT>  (1) 
0

>  <JCHEM_FORMAL_CHARGE>  (1) 
0

>  <JCHEM_GHOSE_FILTER>  (1) 
1

>  <JCHEM_IUPAC>  (1) 
1-(4-{3-[4-(6-fluoro-1,2-benzoxazol-3-yl)piperidin-1-yl]propoxy}-3-methoxyphenyl)ethan-1-one

>  <JCHEM_LOGP>  (1) 
3.221352625333332

>  <JCHEM_MDDR_LIKE_RULE>  (1) 
1

>  <JCHEM_NUMBER_OF_RINGS>  (1) 
4

>  <JCHEM_PHYSIOLOGICAL_CHARGE>  (1) 
1

>  <JCHEM_PKA_STRONGEST_ACIDIC>  (1) 
16.142179924853696

>  <JCHEM_PKA_STRONGEST_BASIC>  (1) 
7.905920417017748

>  <JCHEM_POLAR_SURFACE_AREA>  (1) 
64.80000000000001

>  <JCHEM_REFRACTIVITY>  (1) 
116.64550000000001

>  <JCHEM_ROTATABLE_BOND_COUNT>  (1) 
8

>  <JCHEM_RULE_OF_FIVE>  (1) 
1

>  <JCHEM_TRADITIONAL_IUPAC>  (1) 
iloperidone

>  <JCHEM_VEBER_RULE>  (1) 
0

>  <MOLECULAR_WEIGHT>  (1) 
426.4806

>  <PRODUCTS>  (1) 
Fanapt; Iloperidone

>  <SMILES>  (1) 
COC1=C(OCCCN2CCC(CC2)C2=NOC3=C2C=CC(F)=C3)C=CC(=C1)C(C)=O

$$$$
