
     RDKit          2D

 46 49  0  0  1  0  0  0  0  0999 V2000
    1.1566    0.9645    0.0000 S   0  0  0  0  0  0  0  0  0  0  0  0
    7.3549    4.1025    0.0000 O   0  0  0  0  0  0  0  0  0  0  0  0
    1.8694    0.5492    0.0000 O   0  0  0  0  0  0  0  0  0  0  0  0
    0.4438    1.3796    0.0000 O   0  0  0  0  0  0  0  0  0  0  0  0
    1.5719    1.6773    0.0000 O   0  0  0  0  0  0  0  0  0  0  0  0
    0.7415    0.2517    0.0000 O   0  0  0  0  0  0  0  0  0  0  0  0
    6.3181    2.2422    0.0000 C   0  0  0  0  0  0  0  0  0  0  0  0
    6.3181    3.0671    0.0000 C   0  0  0  0  0  0  0  0  0  0  0  0
    5.6038    1.8298    0.0000 C   0  0  0  0  0  0  0  0  0  0  0  0
    4.8893    2.2422    0.0000 C   0  0  0  0  0  0  0  0  0  0  0  0
    5.6038    3.4795    0.0000 C   0  0  0  0  0  0  0  0  0  0  0  0
    7.0986    1.9908    0.0000 C   0  0  0  0  0  0  0  0  0  0  0  0
    4.8893    3.0671    0.0000 C   0  0  0  0  0  0  0  0  0  0  0  0
    5.6170    0.9707    0.0000 C   0  0  0  0  0  0  0  0  0  0  0  0
    7.0986    3.3185    0.0000 C   0  0  0  0  0  0  0  0  0  0  0  0
    7.5801    2.6546    0.0000 C   0  0  0  0  0  0  0  0  0  0  0  0
    6.3181    3.8920    0.0000 C   0  0  0  0  0  0  0  0  0  0  0  0
    4.1387    1.8241    0.0000 C   0  0  0  0  0  0  0  0  0  0  0  0
    4.8762    0.5352    0.0000 C   0  0  0  0  0  0  0  0  0  0  0  0
    4.1321    0.9649    0.0000 C   0  0  0  0  0  0  0  0  0  0  0  0
    3.3742    2.2894    0.0000 C   0  0  0  0  0  0  0  0  0  0  0  0
    3.3605    0.5114    0.0000 C   0  0  0  0  0  0  0  0  0  0  0  0
    2.5922    1.8539    0.0000 C   0  0  0  0  0  0  0  0  0  0  0  0
    2.5854    0.9590    0.0000 C   0  0  0  0  0  0  0  0  0  0  0  0
    0.0000    0.0000    0.0000 H   0  0  0  0  0  0  0  0  0  0  0  0
    0.0000    0.0000    0.0000 H   0  0  0  0  0  0  0  0  0  0  0  0
    0.0000    0.0000    0.0000 H   0  0  0  0  0  0  0  0  0  0  0  0
    0.0000    0.0000    0.0000 H   0  0  0  0  0  0  0  0  0  0  0  0
    0.0000    0.0000    0.0000 H   0  0  0  0  0  0  0  0  0  0  0  0
    0.0000    0.0000    0.0000 H   0  0  0  0  0  0  0  0  0  0  0  0
    0.0000    0.0000    0.0000 H   0  0  0  0  0  0  0  0  0  0  0  0
    0.0000    0.0000    0.0000 H   0  0  0  0  0  0  0  0  0  0  0  0
    0.0000    0.0000    0.0000 H   0  0  0  0  0  0  0  0  0  0  0  0
    0.0000    0.0000    0.0000 H   0  0  0  0  0  0  0  0  0  0  0  0
    0.0000    0.0000    0.0000 H   0  0  0  0  0  0  0  0  0  0  0  0
    0.0000    0.0000    0.0000 H   0  0  0  0  0  0  0  0  0  0  0  0
    0.0000    0.0000    0.0000 H   0  0  0  0  0  0  0  0  0  0  0  0
    0.0000    0.0000    0.0000 H   0  0  0  0  0  0  0  0  0  0  0  0
    0.0000    0.0000    0.0000 H   0  0  0  0  0  0  0  0  0  0  0  0
    0.0000    0.0000    0.0000 H   0  0  0  0  0  0  0  0  0  0  0  0
    0.0000    0.0000    0.0000 H   0  0  0  0  0  0  0  0  0  0  0  0
    0.0000    0.0000    0.0000 H   0  0  0  0  0  0  0  0  0  0  0  0
    0.0000    0.0000    0.0000 H   0  0  0  0  0  0  0  0  0  0  0  0
    0.0000    0.0000    0.0000 H   0  0  0  0  0  0  0  0  0  0  0  0
    0.0000    0.0000    0.0000 H   0  0  0  0  0  0  0  0  0  0  0  0
    0.0000    0.0000    0.0000 H   0  0  0  0  0  0  0  0  0  0  0  0
  1  3  1  0
  1  4  1  0
  1  5  2  0
  1  6  2  0
  2 15  2  0
  3 24  1  0
  7  8  1  0
  7  9  1  0
  7 12  1  0
  8 11  1  0
  8 15  1  0
  8 17  1  1
  9 10  1  0
  9 14  1  0
 10 13  1  0
 10 18  1  0
 11 13  1  0
 12 16  1  0
 14 19  1  0
 15 16  1  0
 18 20  2  0
 18 21  1  0
 19 20  1  0
 20 22  1  0
 21 23  2  0
 22 24  2  0
 23 24  1  0
  4 25  1  0
  7 26  1  6
  9 27  1  1
 10 28  1  6
 11 29  1  0
 11 30  1  0
 12 31  1  0
 12 32  1  0
 13 33  1  0
 13 34  1  0
 14 35  1  0
 14 36  1  0
 16 37  1  0
 16 38  1  0
 17 39  1  0
 17 40  1  0
 17 41  1  0
 19 42  1  0
 19 43  1  0
 21 44  1  0
 22 45  1  0
 23 46  1  0
M  END
>  <ALOGPS_LOGP>  (1) 
0.29

>  <ALOGPS_LOGS>  (1) 
-4.77

>  <ALOGPS_SOLUBILITY>  (1) 
5.90e-03 g/l

>  <DATABASE_ID>  (1) 
DB04574

>  <DATABASE_NAME>  (1) 
drugbank

>  <DRUGBANK_ID>  (1) 
DB04574

>  <DRUG_GROUPS>  (1) 
approved

>  <EXACT_MASS>  (1) 
350.118794504

>  <FORMULA>  (1) 
C18H22O5S

>  <GENERIC_NAME>  (1) 
Estrone sulfate

>  <INCHI_IDENTIFIER>  (1) 
InChI=1S/C18H22O5S/c1-18-9-8-14-13-5-3-12(23-24(20,21)22)10-11(13)2-4-15(14)16(18)6-7-17(18)19/h3,5,10,14-16H,2,4,6-9H2,1H3,(H,20,21,22)/t14-,15-,16+,18+/m1/s1

>  <INCHI_KEY>  (1) 
JKKFKPJIXZFSSB-CBZIJGRNSA-N

>  <JCHEM_ACCEPTOR_COUNT>  (1) 
4

>  <JCHEM_AVERAGE_POLARIZABILITY>  (1) 
36.64215671380046

>  <JCHEM_BIOAVAILABILITY>  (1) 
1

>  <JCHEM_DONOR_COUNT>  (1) 
1

>  <JCHEM_FORMAL_CHARGE>  (1) 
0

>  <JCHEM_GHOSE_FILTER>  (1) 
1

>  <JCHEM_IUPAC>  (1) 
[(1S,10R,11S,15S)-15-methyl-14-oxotetracyclo[8.7.0.0²,⁷.0¹¹,¹⁵]heptadeca-2(7),3,5-trien-5-yl]oxidanesulfonic acid

>  <JCHEM_LOGP>  (1) 
3.8337156876666674

>  <JCHEM_MDDR_LIKE_RULE>  (1) 
0

>  <JCHEM_NUMBER_OF_RINGS>  (1) 
4

>  <JCHEM_PHYSIOLOGICAL_CHARGE>  (1) 
-1

>  <JCHEM_PKA>  (1) 
19.95753456331333

>  <JCHEM_PKA_STRONGEST_ACIDIC>  (1) 
-1.7480068663945287

>  <JCHEM_PKA_STRONGEST_BASIC>  (1) 
-7.475652910099836

>  <JCHEM_POLAR_SURFACE_AREA>  (1) 
80.67

>  <JCHEM_REFRACTIVITY>  (1) 
89.0742

>  <JCHEM_ROTATABLE_BOND_COUNT>  (1) 
2

>  <JCHEM_RULE_OF_FIVE>  (1) 
1

>  <JCHEM_TRADITIONAL_IUPAC>  (1) 
Ogen

>  <JCHEM_VEBER_RULE>  (1) 
0

>  <MOLECULAR_WEIGHT>  (1) 
350.429

>  <PRODUCTS>  (1) 
Esterified Estrogens and Methyltestosterone; Estropipate; Ogen .625; Ogen 1.25; Ogen 2.5

>  <SALTS>  (1) 
Estrone sodium sulfate; Estropipate; Potassium estrone sulfate

>  <SMILES>  (1) 
C[C@]12CC[C@H]3[C@@H](CCC4=C3C=CC(OS(O)(=O)=O)=C4)[C@@H]1CCC2=O

>  <SYNONYMS>  (1) 
Estra-1,3,5 (10)-triene-17-one-3-yl-sulfate; Estrone 3-sulfate; Estrone bisulfate; Estrone hemisulfate; Estrone hydrogen sulfate; estrone sulphate; Estrone-3-sulphate; Estrone, hydrogen sulfate

$$$$
