4575
     RDKit          2D

 59 63  0  0  1  0  0  0  0  0999 V2000
    8.6440    1.5551    0.0000 O   0  0  0  0  0  0  0  0  0  0  0  0
    3.6676   -1.9997    0.0000 O   0  0  0  0  0  0  0  0  0  0  0  0
    8.1169    0.5186    0.0000 C   0  0  0  0  0  0  0  0  0  0  0  0
    8.1169   -0.3064    0.0000 C   0  0  0  0  0  0  0  0  0  0  0  0
    7.4024   -0.7189    0.0000 C   0  0  0  0  0  0  0  0  0  0  0  0
    8.8976    0.7700    0.0000 C   0  0  0  0  0  0  0  0  0  0  0  0
    6.6880   -0.3064    0.0000 C   0  0  0  0  0  0  0  0  0  0  0  0
    7.4024    0.9311    0.0000 C   0  0  0  0  0  0  0  0  0  0  0  0
    8.8976   -0.5579    0.0000 C   0  0  0  0  0  0  0  0  0  0  0  0
    6.6880    0.5186    0.0000 C   0  0  0  0  0  0  0  0  0  0  0  0
    9.3791    0.1061    0.0000 C   0  0  0  0  0  0  0  0  0  0  0  0
    7.4157   -1.5783    0.0000 C   0  0  0  0  0  0  0  0  0  0  0  0
    8.1169    1.3436    0.0000 C   0  0  0  0  0  0  0  0  0  0  0  0
    5.9372   -0.7246    0.0000 C   0  0  0  0  0  0  0  0  0  0  0  0
    6.6748   -2.0136    0.0000 C   0  0  0  0  0  0  0  0  0  0  0  0
    5.9306   -1.5839    0.0000 C   0  0  0  0  0  0  0  0  0  0  0  0
    9.5659    1.2538    0.0000 C   0  0  0  0  0  0  0  0  0  0  0  0
    5.1726   -0.2592    0.0000 C   0  0  0  0  0  0  0  0  0  0  0  0
    5.1588   -2.0375    0.0000 C   0  0  0  0  0  0  0  0  0  0  0  0
    4.3906   -0.6948    0.0000 C   0  0  0  0  0  0  0  0  0  0  0  0
    4.3836   -1.5899    0.0000 C   0  0  0  0  0  0  0  0  0  0  0  0
   10.2341    1.7376    0.0000 C   0  0  0  0  0  0  0  0  0  0  0  0
    2.9547   -1.5844    0.0000 C   0  0  0  0  0  0  0  0  0  0  0  0
    2.8716   -0.7636    0.0000 C   0  0  0  0  0  0  0  0  0  0  0  0
    2.1997   -1.9171    0.0000 C   0  0  0  0  0  0  0  0  0  0  0  0
    2.0653   -0.5889    0.0000 C   0  0  0  0  0  0  0  0  0  0  0  0
    1.6500   -1.3018    0.0000 C   0  0  0  0  0  0  0  0  0  0  0  0
    0.0000    0.0000    0.0000 H   0  0  0  0  0  0  0  0  0  0  0  0
    0.0000    0.0000    0.0000 H   0  0  0  0  0  0  0  0  0  0  0  0
    0.0000    0.0000    0.0000 H   0  0  0  0  0  0  0  0  0  0  0  0
    0.0000    0.0000    0.0000 H   0  0  0  0  0  0  0  0  0  0  0  0
    0.0000    0.0000    0.0000 H   0  0  0  0  0  0  0  0  0  0  0  0
    0.0000    0.0000    0.0000 H   0  0  0  0  0  0  0  0  0  0  0  0
    0.0000    0.0000    0.0000 H   0  0  0  0  0  0  0  0  0  0  0  0
    0.0000    0.0000    0.0000 H   0  0  0  0  0  0  0  0  0  0  0  0
    0.0000    0.0000    0.0000 H   0  0  0  0  0  0  0  0  0  0  0  0
    0.0000    0.0000    0.0000 H   0  0  0  0  0  0  0  0  0  0  0  0
    0.0000    0.0000    0.0000 H   0  0  0  0  0  0  0  0  0  0  0  0
    0.0000    0.0000    0.0000 H   0  0  0  0  0  0  0  0  0  0  0  0
    0.0000    0.0000    0.0000 H   0  0  0  0  0  0  0  0  0  0  0  0
    0.0000    0.0000    0.0000 H   0  0  0  0  0  0  0  0  0  0  0  0
    0.0000    0.0000    0.0000 H   0  0  0  0  0  0  0  0  0  0  0  0
    0.0000    0.0000    0.0000 H   0  0  0  0  0  0  0  0  0  0  0  0
    0.0000    0.0000    0.0000 H   0  0  0  0  0  0  0  0  0  0  0  0
    0.0000    0.0000    0.0000 H   0  0  0  0  0  0  0  0  0  0  0  0
    0.0000    0.0000    0.0000 H   0  0  0  0  0  0  0  0  0  0  0  0
    0.0000    0.0000    0.0000 H   0  0  0  0  0  0  0  0  0  0  0  0
    0.0000    0.0000    0.0000 H   0  0  0  0  0  0  0  0  0  0  0  0
    0.0000    0.0000    0.0000 H   0  0  0  0  0  0  0  0  0  0  0  0
    0.0000    0.0000    0.0000 H   0  0  0  0  0  0  0  0  0  0  0  0
    0.0000    0.0000    0.0000 H   0  0  0  0  0  0  0  0  0  0  0  0
    0.0000    0.0000    0.0000 H   0  0  0  0  0  0  0  0  0  0  0  0
    0.0000    0.0000    0.0000 H   0  0  0  0  0  0  0  0  0  0  0  0
    0.0000    0.0000    0.0000 H   0  0  0  0  0  0  0  0  0  0  0  0
    0.0000    0.0000    0.0000 H   0  0  0  0  0  0  0  0  0  0  0  0
    0.0000    0.0000    0.0000 H   0  0  0  0  0  0  0  0  0  0  0  0
    0.0000    0.0000    0.0000 H   0  0  0  0  0  0  0  0  0  0  0  0
    0.0000    0.0000    0.0000 H   0  0  0  0  0  0  0  0  0  0  0  0
    0.0000    0.0000    0.0000 H   0  0  0  0  0  0  0  0  0  0  0  0
  6  1  1  1
  2 21  1  0
  2 23  1  0
  3  4  1  0
  3  6  1  0
  3  8  1  0
  3 13  1  1
  4  5  1  0
  4  9  1  0
  5  7  1  0
  5 12  1  0
  6 11  1  0
  6 17  1  0
  7 10  1  0
  7 14  1  0
  8 10  1  0
  9 11  1  0
 12 15  1  0
 14 16  2  0
 14 18  1  0
 15 16  1  0
 16 19  1  0
 17 22  3  0
 18 20  2  0
 19 21  2  0
 20 21  1  0
 23 24  1  0
 23 25  1  0
 24 26  1  0
 25 27  1  0
 26 27  1  0
  1 28  1  0
  4 29  1  6
  5 30  1  1
  7 31  1  6
  8 32  1  0
  8 33  1  0
  9 34  1  0
  9 35  1  0
 10 36  1  0
 10 37  1  0
 11 38  1  0
 11 39  1  0
 12 40  1  0
 12 41  1  0
 13 42  1  0
 13 43  1  0
 13 44  1  0
 15 45  1  0
 15 46  1  0
 18 47  1  0
 19 48  1  0
 20 49  1  0
 22 50  1  0
 23 51  1  0
 24 52  1  0
 24 53  1  0
 25 54  1  0
 25 55  1  0
 26 56  1  0
 26 57  1  0
 27 58  1  0
 27 59  1  0
M  END
>  <ALOGPS_LOGP>  (1) 
5.19

>  <ALOGPS_LOGS>  (1) 
-5.37

>  <ALOGPS_SOLUBILITY>  (1) 
1.57e-03 g/l

>  <DATABASE_ID>  (1) 
DB04575

>  <DATABASE_NAME>  (1) 
drugbank

>  <DRUGBANK_ID>  (1) 
DB04575

>  <DRUG_GROUPS>  (1) 
approved

>  <EXACT_MASS>  (1) 
364.240230268

>  <FORMULA>  (1) 
C25H32O2

>  <GENERIC_NAME>  (1) 
Quinestrol

>  <INCHI_IDENTIFIER>  (1) 
InChI=1S/C25H32O2/c1-3-25(26)15-13-23-22-10-8-17-16-19(27-18-6-4-5-7-18)9-11-20(17)21(22)12-14-24(23,25)2/h1,9,11,16,18,21-23,26H,4-8,10,12-15H2,2H3/t21-,22-,23+,24+,25+/m1/s1

>  <INCHI_KEY>  (1) 
PWZUUYSISTUNDW-VAFBSOEGSA-N

>  <INTERNATIONAL_BRANDS>  (1) 
Estrovis

>  <JCHEM_ACCEPTOR_COUNT>  (1) 
2

>  <JCHEM_AVERAGE_POLARIZABILITY>  (1) 
44.016226313153915

>  <JCHEM_BIOAVAILABILITY>  (1) 
1

>  <JCHEM_DONOR_COUNT>  (1) 
1

>  <JCHEM_FORMAL_CHARGE>  (1) 
0

>  <JCHEM_GHOSE_FILTER>  (1) 
1

>  <JCHEM_IUPAC>  (1) 
(1S,10R,11S,14R,15S)-5-(cyclopentyloxy)-14-ethynyl-15-methyltetracyclo[8.7.0.0²,⁷.0¹¹,¹⁵]heptadeca-2(7),3,5-trien-14-ol

>  <JCHEM_LOGP>  (1) 
5.397949010666668

>  <JCHEM_MDDR_LIKE_RULE>  (1) 
0

>  <JCHEM_NUMBER_OF_RINGS>  (1) 
5

>  <JCHEM_PHYSIOLOGICAL_CHARGE>  (1) 
0

>  <JCHEM_PKA_STRONGEST_ACIDIC>  (1) 
17.594918895355708

>  <JCHEM_PKA_STRONGEST_BASIC>  (1) 
-1.6634995932141448

>  <JCHEM_POLAR_SURFACE_AREA>  (1) 
29.46

>  <JCHEM_REFRACTIVITY>  (1) 
108.27000000000001

>  <JCHEM_ROTATABLE_BOND_COUNT>  (1) 
2

>  <JCHEM_RULE_OF_FIVE>  (1) 
0

>  <JCHEM_TRADITIONAL_IUPAC>  (1) 
quinestrol

>  <JCHEM_VEBER_RULE>  (1) 
1

>  <MOLECULAR_WEIGHT>  (1) 
364.5204

>  <SMILES>  (1) 
[H][C@@]12CC[C@@](O)(C#C)[C@@]1(C)CC[C@]1([H])C3=C(CC[C@@]21[H])C=C(OC1CCCC1)C=C3

>  <SYNONYMS>  (1) 
17-alpha-Ethinylestradiol 3-cyclopentyl ether; 17alpha-Ethynylestradiol 3-cyclopentyl ether; Estradiol-17-beta 3-cyclopentyl ether; ethinyl estradiol 3-cyclopentyl ether; Quinestrolo; Quinestrolum

$$$$
