
     RDKit          2D

 44 46  0  0  0  0  0  0  0  0999 V2000
   -3.5724    1.2375    0.0000 C   0  0  0  0  0  0  0  0  0  0  0  0
   -2.8579    0.8250    0.0000 N   0  0  0  0  0  0  0  0  0  0  0  0
   -2.1434    1.2375    0.0000 C   0  0  0  0  0  0  0  0  0  0  0  0
   -1.4289    0.8250    0.0000 C   0  0  0  0  0  0  0  0  0  0  0  0
   -1.4289    0.0000    0.0000 N   0  0  0  0  0  0  0  0  0  0  0  0
   -2.1434   -0.4125    0.0000 C   0  0  0  0  0  0  0  0  0  0  0  0
   -2.8579    0.0000    0.0000 C   0  0  0  0  0  0  0  0  0  0  0  0
   -0.7145   -0.4125    0.0000 C   0  0  0  0  0  0  0  0  0  0  0  0
   -0.7145   -1.2375    0.0000 C   0  0  0  0  0  0  0  0  0  0  0  0
    0.0000   -1.6500    0.0000 C   0  0  0  0  0  0  0  0  0  0  0  0
    0.7145   -1.2375    0.0000 C   0  0  0  0  0  0  0  0  0  0  0  0
    0.7145   -0.4125    0.0000 C   0  0  0  0  0  0  0  0  0  0  0  0
    0.0000   -0.0000    0.0000 C   0  0  0  0  0  0  0  0  0  0  0  0
    0.0000    0.8250    0.0000 F   0  0  0  0  0  0  0  0  0  0  0  0
    1.4289   -0.0000    0.0000 N   0  0  0  0  0  0  0  0  0  0  0  0
    2.1434   -0.4125    0.0000 C   0  0  0  0  0  0  0  0  0  0  0  0
    2.1434   -1.2375    0.0000 C   0  0  0  0  0  0  0  0  0  0  0  0
    1.4289   -1.6500    0.0000 C   0  0  0  0  0  0  0  0  0  0  0  0
    1.4289   -2.4750    0.0000 O   0  0  0  0  0  0  0  0  0  0  0  0
    2.8579   -1.6500    0.0000 C   0  0  0  0  0  0  0  0  0  0  0  0
    3.5724   -1.2375    0.0000 O   0  0  0  0  0  0  0  0  0  0  0  0
    2.8579   -2.4750    0.0000 O   0  0  0  0  0  0  0  0  0  0  0  0
    1.4289    0.8250    0.0000 C   0  0  0  0  0  0  0  0  0  0  0  0
    0.7145    1.2375    0.0000 C   0  0  0  0  0  0  0  0  0  0  0  0
    0.7145    2.0625    0.0000 F   0  0  0  0  0  0  0  0  0  0  0  0
   -1.4289   -1.6500    0.0000 F   0  0  0  0  0  0  0  0  0  0  0  0
    0.0000    0.0000    0.0000 H   0  0  0  0  0  0  0  0  0  0  0  0
    0.0000    0.0000    0.0000 H   0  0  0  0  0  0  0  0  0  0  0  0
    0.0000    0.0000    0.0000 H   0  0  0  0  0  0  0  0  0  0  0  0
    0.0000    0.0000    0.0000 H   0  0  0  0  0  0  0  0  0  0  0  0
    0.0000    0.0000    0.0000 H   0  0  0  0  0  0  0  0  0  0  0  0
    0.0000    0.0000    0.0000 H   0  0  0  0  0  0  0  0  0  0  0  0
    0.0000    0.0000    0.0000 H   0  0  0  0  0  0  0  0  0  0  0  0
    0.0000    0.0000    0.0000 H   0  0  0  0  0  0  0  0  0  0  0  0
    0.0000    0.0000    0.0000 H   0  0  0  0  0  0  0  0  0  0  0  0
    0.0000    0.0000    0.0000 H   0  0  0  0  0  0  0  0  0  0  0  0
    0.0000    0.0000    0.0000 H   0  0  0  0  0  0  0  0  0  0  0  0
    0.0000    0.0000    0.0000 H   0  0  0  0  0  0  0  0  0  0  0  0
    0.0000    0.0000    0.0000 H   0  0  0  0  0  0  0  0  0  0  0  0
    0.0000    0.0000    0.0000 H   0  0  0  0  0  0  0  0  0  0  0  0
    0.0000    0.0000    0.0000 H   0  0  0  0  0  0  0  0  0  0  0  0
    0.0000    0.0000    0.0000 H   0  0  0  0  0  0  0  0  0  0  0  0
    0.0000    0.0000    0.0000 H   0  0  0  0  0  0  0  0  0  0  0  0
    0.0000    0.0000    0.0000 H   0  0  0  0  0  0  0  0  0  0  0  0
  1  2  1  0
  2  3  1  0
  3  4  1  0
  4  5  1  0
  5  6  1  0
  6  7  1  0
  2  7  1  0
  5  8  1  0
  8  9  2  0
  9 10  1  0
 10 11  2  0
 11 12  1  0
 12 13  2  0
  8 13  1  0
 13 14  1  0
 12 15  1  0
 15 16  1  0
 16 17  2  0
 17 18  1  0
 11 18  1  0
 18 19  2  0
 17 20  1  0
 20 21  2  0
 20 22  1  0
 15 23  1  0
 23 24  1  0
 24 25  1  0
  9 26  1  0
  1 27  1  0
  1 28  1  0
  1 29  1  0
  3 30  1  0
  3 31  1  0
  4 32  1  0
  4 33  1  0
  6 34  1  0
  6 35  1  0
  7 36  1  0
  7 37  1  0
 10 38  1  0
 16 39  1  0
 22 40  1  0
 23 41  1  0
 23 42  1  0
 24 43  1  0
 24 44  1  0
M  END
>  <ALOGPS_LOGP>  (1) 
0.30

>  <ALOGPS_LOGS>  (1) 
-3.11

>  <ALOGPS_SOLUBILITY>  (1) 
2.84e-01 g/l

>  <DATABASE_ID>  (1) 
DB04576

>  <DATABASE_NAME>  (1) 
drugbank

>  <DRUGBANK_ID>  (1) 
DB04576

>  <DRUG_GROUPS>  (1) 
approved

>  <EXACT_MASS>  (1) 
369.130025941

>  <FORMULA>  (1) 
C17H18F3N3O3

>  <GENERIC_NAME>  (1) 
Fleroxacin

>  <INCHI_IDENTIFIER>  (1) 
InChI=1S/C17H18F3N3O3/c1-21-4-6-22(7-5-21)15-12(19)8-10-14(13(15)20)23(3-2-18)9-11(16(10)24)17(25)26/h8-9H,2-7H2,1H3,(H,25,26)

>  <INCHI_KEY>  (1) 
XBJBPGROQZJDOJ-UHFFFAOYSA-N

>  <JCHEM_ACCEPTOR_COUNT>  (1) 
6

>  <JCHEM_ATOM_COUNT>  (1) 
44

>  <JCHEM_AVERAGE_POLARIZABILITY>  (1) 
34.70668895600451

>  <JCHEM_BIOAVAILABILITY>  (1) 
1

>  <JCHEM_DONOR_COUNT>  (1) 
1

>  <JCHEM_FORMAL_CHARGE>  (1) 
0

>  <JCHEM_GHOSE_FILTER>  (1) 
1

>  <JCHEM_IUPAC>  (1) 
6,8-difluoro-1-(2-fluoroethyl)-7-(4-methylpiperazin-1-yl)-4-oxo-1,4-dihydroquinoline-3-carboxylic acid

>  <JCHEM_LOGP>  (1) 
1.1188913834833853

>  <JCHEM_MDDR_LIKE_RULE>  (1) 
0

>  <JCHEM_NUMBER_OF_RINGS>  (1) 
3

>  <JCHEM_PHYSIOLOGICAL_CHARGE>  (1) 
-1

>  <JCHEM_PKA_STRONGEST_ACIDIC>  (1) 
5.441407671700663

>  <JCHEM_PKA_STRONGEST_BASIC>  (1) 
6.06252787112316

>  <JCHEM_POLAR_SURFACE_AREA>  (1) 
64.09

>  <JCHEM_REFRACTIVITY>  (1) 
90.83949999999999

>  <JCHEM_ROTATABLE_BOND_COUNT>  (1) 
4

>  <JCHEM_RULE_OF_FIVE>  (1) 
1

>  <JCHEM_TRADITIONAL_IUPAC>  (1) 
fleroxacin

>  <JCHEM_VEBER_RULE>  (1) 
0

>  <MOLECULAR_WEIGHT>  (1) 
369.344

>  <SMILES>  (1) 
CN1CCN(CC1)C1=C(F)C=C2C(=O)C(=CN(CCF)C2=C1F)C(O)=O

>  <SYNONYMS>  (1) 
Fleroxacin; Fleroxacine; Fleroxacino; Fleroxacinum

$$$$
