
     RDKit          2D

 27 28  0  0  0  0  0  0  0  0999 V2000
    1.0907    1.1736    0.0000 C   0  0  0  0  0  0  0  0  0  0  0  0
    0.3473    0.8156    0.0000 C   0  0  0  0  0  0  0  0  0  0  0  0
    0.1637    0.0114    0.0000 C   0  0  0  0  0  0  0  0  0  0  0  0
    0.6781   -0.6335    0.0000 C   0  0  0  0  0  0  0  0  0  0  0  0
    1.5031   -0.6335    0.0000 C   0  0  0  0  0  0  0  0  0  0  0  0
    2.0175    0.0114    0.0000 N   0  0  0  0  0  0  0  0  0  0  0  0
    1.8340    0.8156    0.0000 C   0  0  0  0  0  0  0  0  0  0  0  0
   -0.2573    1.3769    0.0000 C   0  0  0  0  0  0  0  0  0  0  0  0
   -1.0457    1.1336    0.0000 C   0  0  0  0  0  0  0  0  0  0  0  0
   -1.2292    0.3293    0.0000 C   0  0  0  0  0  0  0  0  0  0  0  0
   -0.6244   -0.2318    0.0000 C   0  0  0  0  0  0  0  0  0  0  0  0
    0.3202   -1.3769    0.0000 C   0  0  0  0  0  0  0  0  0  0  0  0
   -2.0176    0.0861    0.0000 Cl  0  0  0  0  0  0  0  0  0  0  0  0
    0.0000    0.0000    0.0000 H   0  0  0  0  0  0  0  0  0  0  0  0
    0.0000    0.0000    0.0000 H   0  0  0  0  0  0  0  0  0  0  0  0
    0.0000    0.0000    0.0000 H   0  0  0  0  0  0  0  0  0  0  0  0
    0.0000    0.0000    0.0000 H   0  0  0  0  0  0  0  0  0  0  0  0
    0.0000    0.0000    0.0000 H   0  0  0  0  0  0  0  0  0  0  0  0
    0.0000    0.0000    0.0000 H   0  0  0  0  0  0  0  0  0  0  0  0
    0.0000    0.0000    0.0000 H   0  0  0  0  0  0  0  0  0  0  0  0
    0.0000    0.0000    0.0000 H   0  0  0  0  0  0  0  0  0  0  0  0
    0.0000    0.0000    0.0000 H   0  0  0  0  0  0  0  0  0  0  0  0
    0.0000    0.0000    0.0000 H   0  0  0  0  0  0  0  0  0  0  0  0
    0.0000    0.0000    0.0000 H   0  0  0  0  0  0  0  0  0  0  0  0
    0.0000    0.0000    0.0000 H   0  0  0  0  0  0  0  0  0  0  0  0
    0.0000    0.0000    0.0000 H   0  0  0  0  0  0  0  0  0  0  0  0
    0.0000    0.0000    0.0000 H   0  0  0  0  0  0  0  0  0  0  0  0
  1  2  1  0
  7  1  1  0
  3  4  1  0
  4  5  1  0
  5  6  1  0
  6  7  1  0
  2  8  2  0
  3  2  1  0
 11  3  2  0
  8  9  1  0
  9 10  2  0
 10 11  1  0
  4 12  1  6
 10 13  1  0
  1 14  1  0
  1 15  1  0
  4 16  1  0
  5 17  1  0
  5 18  1  0
  6 19  1  0
  7 20  1  0
  7 21  1  0
  8 22  1  0
  9 23  1  0
 11 24  1  0
 12 25  1  0
 12 26  1  0
 12 27  1  0
M  END
>  <ALOGPS_LOGP>  (1) 
3.00

>  <ALOGPS_LOGS>  (1) 
-3.44

>  <ALOGPS_SOLUBILITY>  (1) 
7.09e-02 g/l

>  <DATABASE_ID>  (1) 
DB04871

>  <DATABASE_NAME>  (1) 
drugbank

>  <DRUGBANK_ID>  (1) 
DB04871

>  <DRUG_GROUPS>  (1) 
approved

>  <EXACT_MASS>  (1) 
195.0814772

>  <FORMULA>  (1) 
C11H14ClN

>  <GENERIC_NAME>  (1) 
Lorcaserin

>  <INCHI_IDENTIFIER>  (1) 
InChI=1S/C11H14ClN/c1-8-7-13-5-4-9-2-3-10(12)6-11(8)9/h2-3,6,8,13H,4-5,7H2,1H3/t8-/m0/s1

>  <INCHI_KEY>  (1) 
XTTZERNUQAFMOF-QMMMGPOBSA-N

>  <INTERNATIONAL_BRANDS>  (1) 
Lorqess

>  <JCHEM_ACCEPTOR_COUNT>  (1) 
1

>  <JCHEM_ATOM_COUNT>  (1) 
27

>  <JCHEM_AVERAGE_POLARIZABILITY>  (1) 
21.50943402813011

>  <JCHEM_BIOAVAILABILITY>  (1) 
1

>  <JCHEM_DONOR_COUNT>  (1) 
1

>  <JCHEM_FORMAL_CHARGE>  (1) 
0

>  <JCHEM_GHOSE_FILTER>  (1) 
1

>  <JCHEM_IUPAC>  (1) 
(1R)-8-chloro-1-methyl-2,3,4,5-tetrahydro-1H-3-benzazepine

>  <JCHEM_LOGP>  (1) 
2.829161859666667

>  <JCHEM_MDDR_LIKE_RULE>  (1) 
0

>  <JCHEM_NUMBER_OF_RINGS>  (1) 
2

>  <JCHEM_PHYSIOLOGICAL_CHARGE>  (1) 
1

>  <JCHEM_PKA_STRONGEST_BASIC>  (1) 
10.121865303742185

>  <JCHEM_POLAR_SURFACE_AREA>  (1) 
12.03

>  <JCHEM_REFRACTIVITY>  (1) 
56.647

>  <JCHEM_ROTATABLE_BOND_COUNT>  (1) 
0

>  <JCHEM_RULE_OF_FIVE>  (1) 
1

>  <JCHEM_TRADITIONAL_IUPAC>  (1) 
lorcaserin

>  <JCHEM_VEBER_RULE>  (1) 
1

>  <MOLECULAR_WEIGHT>  (1) 
195.69

>  <PRODUCTS>  (1) 
Belviq; Belviq XR

>  <SALTS>  (1) 
Lorcaserin hydrochloride; Lorcaserin hydrochloride hemihydrate

>  <SMILES>  (1) 
C[C@H]1CNCCC2=CC=C(Cl)C=C12

>  <SYNONYMS>  (1) 
Lorqess

$$$$
