
     RDKit          2D

 58 62  0  0  0  0  0  0  0  0999 V2000
    0.3001    0.5690    0.0000 N   0  0  0  0  0  0  0  0  0  0  0  0
    1.1253    0.5690    0.0000 C   0  0  0  0  0  0  0  0  0  0  0  0
    1.1253   -0.2563    0.0000 C   0  0  0  0  0  0  0  0  0  0  0  0
    0.3001   -0.2563    0.0000 C   0  0  0  0  0  0  0  0  0  0  0  0
    3.8887   -0.9941    0.0000 C   0  0  0  0  0  0  0  0  0  0  0  0
    4.5264   -1.5066    0.0000 N   0  0  0  0  0  0  0  0  0  0  0  0
   -0.4126    0.9816    0.0000 C   0  0  0  0  0  0  0  0  0  0  0  0
   -1.1253    0.5648    0.0000 C   0  0  0  0  0  0  0  0  0  0  0  0
   -3.3133    0.8939    0.0000 C   0  0  0  0  0  0  0  0  0  0  0  0
    3.0926   -1.2065    0.0000 C   0  0  0  0  0  0  0  0  0  0  0  0
   -3.8636    0.2813    0.0000 N   0  0  0  0  0  0  0  0  0  0  0  0
    1.7130   -0.8356    0.0000 N   0  0  0  0  0  0  0  0  0  0  0  0
    4.1762   -0.2188    0.0000 N   0  0  0  0  0  0  0  0  0  0  0  0
    2.5049   -0.6189    0.0000 C   0  0  0  0  0  0  0  0  0  0  0  0
   -2.5631    0.5648    0.0000 C   0  0  0  0  0  0  0  0  0  0  0  0
   -0.4126   -0.6689    0.0000 S   0  0  0  0  0  0  0  0  0  0  0  0
    5.2140   -1.0565    0.0000 C   0  0  0  0  0  0  0  0  0  0  0  0
   -1.8505    0.9774    0.0000 C   0  0  0  0  0  0  0  0  0  0  0  0
    5.0014   -0.2605    0.0000 S   0  0  0  0  0  0  0  0  0  0  0  0
   -0.4208    1.8068    0.0000 C   0  0  0  0  0  0  0  0  0  0  0  0
   -1.1336   -0.2605    0.0000 C   0  0  0  0  0  0  0  0  0  0  0  0
   -3.4510   -0.4313    0.0000 C   0  0  0  0  0  0  0  0  0  0  0  0
    2.8801   -1.9985    0.0000 N   0  0  0  0  0  0  0  0  0  0  0  0
    1.7047    1.1565    0.0000 O   0  0  0  0  0  0  0  0  0  0  0  0
   -2.6465   -0.2563    0.0000 C   0  0  0  0  0  0  0  0  0  0  0  0
   -3.4885    1.7026    0.0000 O   0  0  0  0  0  0  0  0  0  0  0  0
   -4.6888    0.3688    0.0000 C   0  0  0  0  0  0  0  0  0  0  0  0
    2.7175    0.1771    0.0000 O   0  0  0  0  0  0  0  0  0  0  0  0
   -5.9016    0.9065    0.0000 N   0  0  0  0  0  0  0  0  0  0  0  0
    0.2918    2.2194    0.0000 O   0  0  0  0  0  0  0  0  0  0  0  0
    5.9893   -1.3567    0.0000 N   0  0  0  0  0  0  0  0  0  0  0  0
   -1.1378    2.2194    0.0000 O   0  0  0  0  0  0  0  0  0  0  0  0
    2.0881   -2.2194    0.0000 O   0  0  0  0  0  0  0  0  0  0  0  0
   -5.2348   -0.2438    0.0000 C   0  0  0  0  0  0  0  0  0  0  0  0
   -5.1014    1.0815    0.0000 C   0  0  0  0  0  0  0  0  0  0  0  0
   -5.9893    0.0895    0.0000 C   0  0  0  0  0  0  0  0  0  0  0  0
    0.0000    0.0000    0.0000 H   0  0  0  0  0  0  0  0  0  0  0  0
    0.0000    0.0000    0.0000 H   0  0  0  0  0  0  0  0  0  0  0  0
    0.0000    0.0000    0.0000 H   0  0  0  0  0  0  0  0  0  0  0  0
    0.0000    0.0000    0.0000 H   0  0  0  0  0  0  0  0  0  0  0  0
    0.0000    0.0000    0.0000 H   0  0  0  0  0  0  0  0  0  0  0  0
    0.0000    0.0000    0.0000 H   0  0  0  0  0  0  0  0  0  0  0  0
    0.0000    0.0000    0.0000 H   0  0  0  0  0  0  0  0  0  0  0  0
    0.0000    0.0000    0.0000 H   0  0  0  0  0  0  0  0  0  0  0  0
    0.0000    0.0000    0.0000 H   0  0  0  0  0  0  0  0  0  0  0  0
    0.0000    0.0000    0.0000 H   0  0  0  0  0  0  0  0  0  0  0  0
    0.0000    0.0000    0.0000 H   0  0  0  0  0  0  0  0  0  0  0  0
    0.0000    0.0000    0.0000 H   0  0  0  0  0  0  0  0  0  0  0  0
    0.0000    0.0000    0.0000 H   0  0  0  0  0  0  0  0  0  0  0  0
    0.0000    0.0000    0.0000 H   0  0  0  0  0  0  0  0  0  0  0  0
    0.0000    0.0000    0.0000 H   0  0  0  0  0  0  0  0  0  0  0  0
    0.0000    0.0000    0.0000 H   0  0  0  0  0  0  0  0  0  0  0  0
    0.0000    0.0000    0.0000 H   0  0  0  0  0  0  0  0  0  0  0  0
    0.0000    0.0000    0.0000 H   0  0  0  0  0  0  0  0  0  0  0  0
    0.0000    0.0000    0.0000 H   0  0  0  0  0  0  0  0  0  0  0  0
    0.0000    0.0000    0.0000 H   0  0  0  0  0  0  0  0  0  0  0  0
    0.0000    0.0000    0.0000 H   0  0  0  0  0  0  0  0  0  0  0  0
    0.0000    0.0000    0.0000 H   0  0  0  0  0  0  0  0  0  0  0  0
  2  1  1  0
  3  4  1  0
  4  1  1  0
  5 10  1  0
  6  5  1  0
  7  1  1  0
  8  7  2  0
  9 15  1  0
 10 14  1  0
 11  9  1  0
  3 12  1  6
 13  5  2  0
 14 12  1  0
 15 18  2  0
 16  4  1  0
 17  6  2  0
 18  8  1  0
 19 13  1  0
 20  7  1  0
 21  8  1  0
 22 25  1  0
 23 10  2  0
 24  2  2  0
 25 15  1  0
 26  9  2  0
 27 11  1  6
 28 14  2  0
 29 35  1  0
 30 20  2  0
 31 17  1  0
 32 20  1  0
 33 23  1  0
 34 27  1  0
 35 27  1  0
 36 34  1  0
  3  2  1  0
 16 21  1  0
 22 11  1  0
 17 19  1  0
 29 36  1  0
  3 37  1  0
  4 38  1  6
 12 39  1  0
 18 40  1  0
 21 41  1  0
 21 42  1  0
 22 43  1  0
 22 44  1  0
 25 45  1  0
 25 46  1  0
 27 47  1  0
 29 48  1  0
 31 49  1  0
 31 50  1  0
 32 51  1  0
 33 52  1  0
 34 53  1  0
 34 54  1  0
 35 55  1  0
 35 56  1  0
 36 57  1  0
 36 58  1  0
M  END
>  <ALOGPS_LOGP>  (1) 
-1.27

>  <ALOGPS_LOGS>  (1) 
-3.53

>  <ALOGPS_SOLUBILITY>  (1) 
1.59e-01 g/l

>  <DATABASE_ID>  (1) 
DB04918

>  <DATABASE_NAME>  (1) 
drugbank

>  <DRUGBANK_ID>  (1) 
DB04918

>  <DRUG_GROUPS>  (1) 
approved; investigational

>  <EXACT_MASS>  (1) 
534.110372808

>  <FORMULA>  (1) 
C20H22N8O6S2

>  <GENERIC_NAME>  (1) 
Ceftobiprole

>  <INCHI_IDENTIFIER>  (1) 
InChI=1S/C20H22N8O6S2/c21-20-24-14(26-36-20)11(25-34)15(29)23-12-17(31)28-13(19(32)33)9(7-35-18(12)28)5-8-2-4-27(16(8)30)10-1-3-22-6-10/h5,10,12,18,22,34H,1-4,6-7H2,(H,23,29)(H,32,33)(H2,21,24,26)/b8-5+,25-11-/t10-,12-,18-/m1/s1

>  <INCHI_KEY>  (1) 
VOAZJEPQLGBXGO-SDAWRPRTSA-N

>  <JCHEM_ACCEPTOR_COUNT>  (1) 
11

>  <JCHEM_ATOM_COUNT>  (1) 
58

>  <JCHEM_AVERAGE_POLARIZABILITY>  (1) 
50.4099950538823

>  <JCHEM_BIOAVAILABILITY>  (1) 
0

>  <JCHEM_DONOR_COUNT>  (1) 
5

>  <JCHEM_FORMAL_CHARGE>  (1) 
0

>  <JCHEM_GHOSE_FILTER>  (1) 
0

>  <JCHEM_IUPAC>  (1) 
(6R,7R)-7-[(2Z)-2-(5-amino-1,2,4-thiadiazol-3-yl)-2-(N-hydroxyimino)acetamido]-8-oxo-3-{[(3E,3'R)-2-oxo-[1,3'-bipyrrolidine]-3-ylidene]methyl}-5-thia-1-azabicyclo[4.2.0]oct-2-ene-2-carboxylic acid

>  <JCHEM_LOGP>  (1) 
-4.5254878182454314

>  <JCHEM_MDDR_LIKE_RULE>  (1) 
1

>  <JCHEM_NUMBER_OF_RINGS>  (1) 
5

>  <JCHEM_PHYSIOLOGICAL_CHARGE>  (1) 
-1

>  <JCHEM_PKA>  (1) 
3.0625845663705578

>  <JCHEM_PKA_STRONGEST_ACIDIC>  (1) 
-0.8863345684000983

>  <JCHEM_PKA_STRONGEST_BASIC>  (1) 
10.395205133183206

>  <JCHEM_POLAR_SURFACE_AREA>  (1) 
203.43999999999997

>  <JCHEM_REFRACTIVITY>  (1) 
131.03879999999995

>  <JCHEM_ROTATABLE_BOND_COUNT>  (1) 
6

>  <JCHEM_RULE_OF_FIVE>  (1) 
0

>  <JCHEM_TRADITIONAL_IUPAC>  (1) 
(6R,7R)-7-[(2Z)-2-(5-amino-1,2,4-thiadiazol-3-yl)-2-(N-hydroxyimino)acetamido]-8-oxo-3-{[(3E,3'R)-2-oxo-[1,3'-bipyrrolidine]-3-ylidene]methyl}-5-thia-1-azabicyclo[4.2.0]oct-2-ene-2-carboxylic acid

>  <JCHEM_VEBER_RULE>  (1) 
0

>  <MOLECULAR_WEIGHT>  (1) 
534.57

>  <PRODUCTS>  (1) 
Zeftera; Zevtera

>  <SMILES>  (1) 
[H][C@@]1(NC(=O)C(=N/O)\C2=NSC(N)=N2)C(=O)N2C(C(O)=O)=C(CS[C@]12[H])\C=C1/CCN(C1=O)[C@]1([H])CCNC1

$$$$
