
     RDKit          2D

104112  0  0  1  0  0  0  0  0999 V2000
    9.0528    0.3907    0.0000 O   0  0  0  0  0  0  0  0  0  0  0  0
    7.6240    0.9931    0.0000 O   0  0  0  0  0  0  0  0  0  0  0  0
    4.4478    0.5035    0.0000 O   0  0  0  0  0  0  0  0  0  0  0  0
    2.2480   -2.4864    0.0000 O   0  0  0  0  0  0  0  0  0  0  0  0
    2.8056   -3.5114    0.0000 O   0  0  0  0  0  0  0  0  0  0  0  0
    8.3008    3.2056    0.0000 N   0  0  0  0  0  0  0  0  0  0  0  0
    7.7761    0.5858    0.0000 N   0  0  0  0  0  0  0  0  0  0  0  0
    3.3110   -2.9732    0.0000 N   0  0  0  0  0  0  0  0  0  0  0  0
    6.5432   -1.5194    0.0000 N   0  0  0  0  0  0  0  0  0  0  0  0
    8.8152    2.5605    0.0000 C   0  0  0  0  0  0  0  0  0  0  0  0
    8.6315    1.7562    0.0000 C   0  0  0  0  0  0  0  0  0  0  0  0
   10.0755    1.4090    0.0000 C   0  0  0  0  0  0  0  0  0  0  0  0
    9.6323    2.8265    0.0000 C   0  0  0  0  0  0  0  0  0  0  0  0
    9.2524    1.1620    0.0000 C   0  0  0  0  0  0  0  0  0  0  0  0
   10.2668    2.2468    0.0000 C   0  0  0  0  0  0  0  0  0  0  0  0
    9.7067    2.8196    0.0000 C   0  0  0  0  0  0  0  0  0  0  0  0
    7.8883    1.3982    0.0000 C   0  0  0  0  0  0  0  0  0  0  0  0
    7.4758    3.2056    0.0000 C   0  0  0  0  0  0  0  0  0  0  0  0
    9.8066    3.6328    0.0000 C   0  0  0  0  0  0  0  0  0  0  0  0
    7.1449    1.7562    0.0000 C   0  0  0  0  0  0  0  0  0  0  0  0
    8.4480    0.9519    0.0000 C   0  0  0  0  0  0  0  0  0  0  0  0
    6.9614    2.5605    0.0000 C   0  0  0  0  0  0  0  0  0  0  0  0
    6.5797    1.1619    0.0000 C   0  0  0  0  0  0  0  0  0  0  0  0
    6.9690    0.4401    0.0000 C   0  0  0  0  0  0  0  0  0  0  0  0
   10.5921    3.8851    0.0000 C   0  0  0  0  0  0  0  0  0  0  0  0
    5.7264    1.2000    0.0000 C   0  0  0  0  0  0  0  0  0  0  0  0
    6.5318   -0.2938    0.0000 C   0  0  0  0  0  0  0  0  0  0  0  0
    5.6778   -0.2756    0.0000 C   0  0  0  0  0  0  0  0  0  0  0  0
    5.2474   -0.9794    0.0000 C   0  0  0  0  0  0  0  0  0  0  0  0
    3.7654   -1.3368    0.0000 C   0  0  0  0  0  0  0  0  0  0  0  0
    5.2723    0.4764    0.0000 C   0  0  0  0  0  0  0  0  0  0  0  0
    4.4324   -0.8512    0.0000 C   0  0  0  0  0  0  0  0  0  0  0  0
    3.6372   -2.1518    0.0000 C   0  0  0  0  0  0  0  0  0  0  0  0
    4.1228   -2.8187    0.0000 C   0  0  0  0  0  0  0  0  0  0  0  0
    8.8692   -0.4136    0.0000 C   0  0  0  0  0  0  0  0  0  0  0  0
    5.7330   -1.6464    0.0000 C   0  0  0  0  0  0  0  0  0  0  0  0
    4.9377   -2.9470    0.0000 C   0  0  0  0  0  0  0  0  0  0  0  0
    2.9725   -1.5692    0.0000 C   0  0  0  0  0  0  0  0  0  0  0  0
    5.6047   -2.4614    0.0000 C   0  0  0  0  0  0  0  0  0  0  0  0
    2.7514   -2.3653    0.0000 C   0  0  0  0  0  0  0  0  0  0  0  0
    6.3368   -2.8311    0.0000 C   0  0  0  0  0  0  0  0  0  0  0  0
    3.0392   -2.7201    0.0000 C   0  0  0  0  0  0  0  0  0  0  0  0
    6.9156   -2.2501    0.0000 C   0  0  0  0  0  0  0  0  0  0  0  0
    3.4785   -3.7811    0.0000 C   0  0  0  0  0  0  0  0  0  0  0  0
    2.3850   -0.9899    0.0000 C   0  0  0  0  0  0  0  0  0  0  0  0
    6.5467   -3.6591    0.0000 C   0  0  0  0  0  0  0  0  0  0  0  0
    4.0589    1.2312    0.0000 C   0  0  0  0  0  0  0  0  0  0  0  0
    7.7445   -2.4569    0.0000 C   0  0  0  0  0  0  0  0  0  0  0  0
    2.5928   -0.1915    0.0000 C   0  0  0  0  0  0  0  0  0  0  0  0
    7.3705   -3.8851    0.0000 C   0  0  0  0  0  0  0  0  0  0  0  0
    7.9734   -3.2800    0.0000 C   0  0  0  0  0  0  0  0  0  0  0  0
    1.6500   -3.0548    0.0000 C   0  0  0  0  0  0  0  0  0  0  0  0
    0.0000    0.0000    0.0000 H   0  0  0  0  0  0  0  0  0  0  0  0
    0.0000    0.0000    0.0000 H   0  0  0  0  0  0  0  0  0  0  0  0
    0.0000    0.0000    0.0000 H   0  0  0  0  0  0  0  0  0  0  0  0
    0.0000    0.0000    0.0000 H   0  0  0  0  0  0  0  0  0  0  0  0
    0.0000    0.0000    0.0000 H   0  0  0  0  0  0  0  0  0  0  0  0
    0.0000    0.0000    0.0000 H   0  0  0  0  0  0  0  0  0  0  0  0
    0.0000    0.0000    0.0000 H   0  0  0  0  0  0  0  0  0  0  0  0
    0.0000    0.0000    0.0000 H   0  0  0  0  0  0  0  0  0  0  0  0
    0.0000    0.0000    0.0000 H   0  0  0  0  0  0  0  0  0  0  0  0
    0.0000    0.0000    0.0000 H   0  0  0  0  0  0  0  0  0  0  0  0
    0.0000    0.0000    0.0000 H   0  0  0  0  0  0  0  0  0  0  0  0
    0.0000    0.0000    0.0000 H   0  0  0  0  0  0  0  0  0  0  0  0
    0.0000    0.0000    0.0000 H   0  0  0  0  0  0  0  0  0  0  0  0
    0.0000    0.0000    0.0000 H   0  0  0  0  0  0  0  0  0  0  0  0
    0.0000    0.0000    0.0000 H   0  0  0  0  0  0  0  0  0  0  0  0
    0.0000    0.0000    0.0000 H   0  0  0  0  0  0  0  0  0  0  0  0
    0.0000    0.0000    0.0000 H   0  0  0  0  0  0  0  0  0  0  0  0
    0.0000    0.0000    0.0000 H   0  0  0  0  0  0  0  0  0  0  0  0
    0.0000    0.0000    0.0000 H   0  0  0  0  0  0  0  0  0  0  0  0
    0.0000    0.0000    0.0000 H   0  0  0  0  0  0  0  0  0  0  0  0
    0.0000    0.0000    0.0000 H   0  0  0  0  0  0  0  0  0  0  0  0
    0.0000    0.0000    0.0000 H   0  0  0  0  0  0  0  0  0  0  0  0
    0.0000    0.0000    0.0000 H   0  0  0  0  0  0  0  0  0  0  0  0
    0.0000    0.0000    0.0000 H   0  0  0  0  0  0  0  0  0  0  0  0
    0.0000    0.0000    0.0000 H   0  0  0  0  0  0  0  0  0  0  0  0
    0.0000    0.0000    0.0000 H   0  0  0  0  0  0  0  0  0  0  0  0
    0.0000    0.0000    0.0000 H   0  0  0  0  0  0  0  0  0  0  0  0
    0.0000    0.0000    0.0000 H   0  0  0  0  0  0  0  0  0  0  0  0
    0.0000    0.0000    0.0000 H   0  0  0  0  0  0  0  0  0  0  0  0
    0.0000    0.0000    0.0000 H   0  0  0  0  0  0  0  0  0  0  0  0
    0.0000    0.0000    0.0000 H   0  0  0  0  0  0  0  0  0  0  0  0
    0.0000    0.0000    0.0000 H   0  0  0  0  0  0  0  0  0  0  0  0
    0.0000    0.0000    0.0000 H   0  0  0  0  0  0  0  0  0  0  0  0
    0.0000    0.0000    0.0000 H   0  0  0  0  0  0  0  0  0  0  0  0
    0.0000    0.0000    0.0000 H   0  0  0  0  0  0  0  0  0  0  0  0
    0.0000    0.0000    0.0000 H   0  0  0  0  0  0  0  0  0  0  0  0
    0.0000    0.0000    0.0000 H   0  0  0  0  0  0  0  0  0  0  0  0
    0.0000    0.0000    0.0000 H   0  0  0  0  0  0  0  0  0  0  0  0
    0.0000    0.0000    0.0000 H   0  0  0  0  0  0  0  0  0  0  0  0
    0.0000    0.0000    0.0000 H   0  0  0  0  0  0  0  0  0  0  0  0
    0.0000    0.0000    0.0000 H   0  0  0  0  0  0  0  0  0  0  0  0
    0.0000    0.0000    0.0000 H   0  0  0  0  0  0  0  0  0  0  0  0
    0.0000    0.0000    0.0000 H   0  0  0  0  0  0  0  0  0  0  0  0
    0.0000    0.0000    0.0000 H   0  0  0  0  0  0  0  0  0  0  0  0
    0.0000    0.0000    0.0000 H   0  0  0  0  0  0  0  0  0  0  0  0
    0.0000    0.0000    0.0000 H   0  0  0  0  0  0  0  0  0  0  0  0
    0.0000    0.0000    0.0000 H   0  0  0  0  0  0  0  0  0  0  0  0
    0.0000    0.0000    0.0000 H   0  0  0  0  0  0  0  0  0  0  0  0
    0.0000    0.0000    0.0000 H   0  0  0  0  0  0  0  0  0  0  0  0
    0.0000    0.0000    0.0000 H   0  0  0  0  0  0  0  0  0  0  0  0
    0.0000    0.0000    0.0000 H   0  0  0  0  0  0  0  0  0  0  0  0
    0.0000    0.0000    0.0000 H   0  0  0  0  0  0  0  0  0  0  0  0
  1 21  1  0
  1 35  1  0
  2 21  2  0
  3 31  1  0
  3 47  1  0
  4 42  1  0
  4 52  1  0
  5 42  2  0
  6 10  1  0
  6 16  1  0
  6 18  1  0
  7 17  1  0
  7 24  1  0
  8 34  1  0
  8 40  1  0
  8 44  1  0
  9 36  1  0
  9 43  1  0
 10 11  1  0
 10 13  1  0
 11 14  1  0
 11 17  1  0
 11 21  1  6
 12 14  1  0
 12 15  1  0
 12 16  1  0
 13 15  1  0
 13 19  1  1
 17 20  2  0
 18 22  1  0
 19 25  1  0
 20 22  1  0
 20 23  1  0
 23 24  2  0
 23 26  1  0
 24 27  1  0
 26 31  2  0
 27 28  2  0
 29 28  1  6
 28 31  1  0
 29 32  1  0
 29 36  1  0
 30 32  1  0
 30 33  1  0
 30 38  1  0
 33 34  1  0
 33 42  1  0
 34 37  1  0
 36 39  2  0
 37 39  1  0
 38 40  1  0
 38 45  2  0
 39 41  1  0
 41 43  2  0
 41 46  1  0
 43 48  1  0
 45 49  1  0
 46 50  2  0
 48 51  2  0
 50 51  1  0
  7 53  1  0
  9 54  1  0
 10 55  1  6
 12 56  1  6
 13 57  1  0
 14 58  1  0
 14 59  1  0
 15 60  1  0
 15 61  1  0
 16 62  1  0
 16 63  1  0
 18 64  1  0
 18 65  1  0
 19 66  1  0
 19 67  1  0
 22 68  1  0
 22 69  1  0
 25 70  1  0
 25 71  1  0
 25 72  1  0
 26 73  1  0
 27 74  1  0
 29 75  1  0
 30 76  1  1
 32 77  1  0
 32 78  1  0
 33 79  1  0
 34 80  1  6
 35 81  1  0
 35 82  1  0
 35 83  1  0
 37 84  1  0
 37 85  1  0
 40 86  1  0
 40 87  1  0
 44 88  1  0
 44 89  1  0
 44 90  1  0
 45 91  1  0
 46 92  1  0
 47 93  1  0
 47 94  1  0
 47 95  1  0
 48 96  1  0
 49 97  1  0
 49 98  1  0
 49 99  1  0
 50100  1  0
 51101  1  0
 52102  1  0
 52103  1  0
 52104  1  0
M  END
>  <ALOGPS_LOGP>  (1) 
6.26

>  <ALOGPS_LOGS>  (1) 
-5.34

>  <ALOGPS_SOLUBILITY>  (1) 
3.23e-03 g/l

>  <DATABASE_ID>  (1) 
DB04877

>  <DATABASE_NAME>  (1) 
drugbank

>  <DRUGBANK_ID>  (1) 
DB04877

>  <DRUG_GROUPS>  (1) 
approved; investigational

>  <EXACT_MASS>  (1) 
704.393770794

>  <FORMULA>  (1) 
C43H52N4O5

>  <GENERIC_NAME>  (1) 
Voacamine

>  <INCHI_IDENTIFIER>  (1) 
InChI=1S/C43H52N4O5/c1-7-24-15-23-20-43(42(49)52-6)39-27(13-14-47(21-23)40(24)43)29-19-36(50-4)30(17-34(29)45-39)31-16-28-25(8-2)22-46(3)35(37(28)41(48)51-5)18-32-26-11-9-10-12-33(26)44-38(31)32/h8-12,17,19,23-24,28,31,35,37,40,44-45H,7,13-16,18,20-22H2,1-6H3/b25-8-/t23-,24-,28-,31+,35+,37?,40-,43+/m0/s1

>  <INCHI_KEY>  (1) 
VCMIRXRRQJNZJT-XRMSBCOFSA-N

>  <JCHEM_ACCEPTOR_COUNT>  (1) 
5

>  <JCHEM_BIOAVAILABILITY>  (1) 
0

>  <JCHEM_DONOR_COUNT>  (1) 
2

>  <JCHEM_FORMAL_CHARGE>  (1) 
0

>  <JCHEM_GHOSE_FILTER>  (1) 
0

>  <JCHEM_IUPAC>  (1) 
methyl (1S,15S,17S,18S)-17-ethyl-6-[(1R,12R,14R,15E)-15-ethylidene-18-(methoxycarbonyl)-17-methyl-10,17-diazatetracyclo[12.3.1.0³,¹¹.0⁴,⁹]octadeca-3(11),4,6,8-tetraen-12-yl]-7-methoxy-3,13-diazapentacyclo[13.3.1.0²,¹⁰.0⁴,⁹.0¹³,¹⁸]nonadeca-2(10),4,6,8-tetraene-1-carboxylate

>  <JCHEM_LOGP>  (1) 
6.20619741

>  <JCHEM_MDDR_LIKE_RULE>  (1) 
1

>  <JCHEM_NUMBER_OF_RINGS>  (1) 
9

>  <JCHEM_PHYSIOLOGICAL_CHARGE>  (1) 
2

>  <JCHEM_PKA>  (1) 
16.779474631378356

>  <JCHEM_PKA_STRONGEST_ACIDIC>  (1) 
15.555075374646346

>  <JCHEM_PKA_STRONGEST_BASIC>  (1) 
8.525647764336558

>  <JCHEM_POLAR_SURFACE_AREA>  (1) 
99.89000000000001

>  <JCHEM_REFRACTIVITY>  (1) 
203.68439999999995

>  <JCHEM_ROTATABLE_BOND_COUNT>  (1) 
7

>  <JCHEM_RULE_OF_FIVE>  (1) 
0

>  <JCHEM_TRADITIONAL_IUPAC>  (1) 
voacamine

>  <JCHEM_VEBER_RULE>  (1) 
0

>  <MOLECULAR_WEIGHT>  (1) 
704.8968

>  <SMILES>  (1) 
[H][C@@]12C[C@H](CC)[C@]3([H])N(C1)CCC1=C(NC4=CC(=C(OC)C=C14)[C@@]1([H])C[C@]4([H])C(C(=O)OC)[C@@]([H])(CC5=C1NC1=CC=CC=C51)N(C)C\C4=C\C)[C@@]3(C2)C(=O)OC

$$$$
