
     RDKit          2D

 29 31  0  0  0  0  0  0  0  0999 V2000
   -1.4158   -0.6176    0.0000 C   0  0  0  0  0  0  0  0  0  0  0  0
   -2.1345   -0.2124    0.0000 C   0  0  0  0  0  0  0  0  0  0  0  0
   -2.1429    0.6125    0.0000 C   0  0  0  0  0  0  0  0  0  0  0  0
   -1.4326    1.0322    0.0000 C   0  0  0  0  0  0  0  0  0  0  0  0
   -0.7140    0.6271    0.0000 C   0  0  0  0  0  0  0  0  0  0  0  0
   -0.7056   -0.1978    0.0000 C   0  0  0  0  0  0  0  0  0  0  0  0
   -2.8451   -0.6324    0.0000 C   0  0  0  0  0  0  0  0  0  0  0  0
   -3.4133   -0.9682    0.0000 N   0  0  0  0  0  0  0  0  0  0  0  0
   -0.0025    1.0456    0.0000 O   0  0  0  0  0  0  0  0  0  0  0  0
    0.7158    0.6392    0.0000 C   0  0  0  0  0  0  0  0  0  0  0  0
    1.4378    1.0603    0.0000 C   0  0  0  0  0  0  0  0  0  0  0  0
    2.1498    0.6392    0.0000 C   0  0  0  0  0  0  0  0  0  0  0  0
    2.1498   -0.1830    0.0000 C   0  0  0  0  0  0  0  0  0  0  0  0
    1.4378   -0.6041    0.0000 C   0  0  0  0  0  0  0  0  0  0  0  0
    0.7158   -0.1830    0.0000 C   0  0  0  0  0  0  0  0  0  0  0  0
    2.9320    0.8899    0.0000 C   0  0  0  0  0  0  0  0  0  0  0  0
    3.4133    0.2380    0.0000 O   0  0  0  0  0  0  0  0  0  0  0  0
    2.9320   -0.4337    0.0000 B   0  0  0  0  0  0  0  0  0  0  0  0
    3.1393   -1.0603    0.0000 O   0  0  0  0  0  0  0  0  0  0  0  0
    0.0000    0.0000    0.0000 H   0  0  0  0  0  0  0  0  0  0  0  0
    0.0000    0.0000    0.0000 H   0  0  0  0  0  0  0  0  0  0  0  0
    0.0000    0.0000    0.0000 H   0  0  0  0  0  0  0  0  0  0  0  0
    0.0000    0.0000    0.0000 H   0  0  0  0  0  0  0  0  0  0  0  0
    0.0000    0.0000    0.0000 H   0  0  0  0  0  0  0  0  0  0  0  0
    0.0000    0.0000    0.0000 H   0  0  0  0  0  0  0  0  0  0  0  0
    0.0000    0.0000    0.0000 H   0  0  0  0  0  0  0  0  0  0  0  0
    0.0000    0.0000    0.0000 H   0  0  0  0  0  0  0  0  0  0  0  0
    0.0000    0.0000    0.0000 H   0  0  0  0  0  0  0  0  0  0  0  0
    0.0000    0.0000    0.0000 H   0  0  0  0  0  0  0  0  0  0  0  0
  1  2  2  0
  1  6  1  0
  2  3  1  0
  3  4  2  0
  4  5  1  0
  5  6  2  0
  2  7  1  0
  7  8  3  0
  5  9  1  0
  9 10  1  0
 10 11  2  0
 10 15  1  0
 11 12  1  0
 13 14  1  0
 14 15  2  0
 12 16  1  0
 12 13  2  0
 13 18  1  0
 16 17  1  0
 17 18  1  0
 18 19  1  0
  1 20  1  0
  3 21  1  0
  4 22  1  0
  6 23  1  0
 11 24  1  0
 14 25  1  0
 15 26  1  0
 16 27  1  0
 16 28  1  0
 19 29  1  0
M  END
>  <ALOGPS_LOGP>  (1) 
2.60

>  <ALOGPS_LOGS>  (1) 
-4.03

>  <ALOGPS_SOLUBILITY>  (1) 
2.34e-02 g/l

>  <DATABASE_ID>  (1) 
DB05219

>  <DATABASE_NAME>  (1) 
drugbank

>  <DRUGBANK_ID>  (1) 
DB05219

>  <DRUG_GROUPS>  (1) 
approved; investigational

>  <EXACT_MASS>  (1) 
251.075373

>  <FORMULA>  (1) 
C14H10BNO3

>  <GENERIC_NAME>  (1) 
Crisaborole

>  <INCHI_IDENTIFIER>  (1) 
InChI=1S/C14H10BNO3/c16-8-10-1-3-12(4-2-10)19-13-5-6-14-11(7-13)9-18-15(14)17/h1-7,17H,9H2

>  <INCHI_KEY>  (1) 
USZAGAREISWJDP-UHFFFAOYSA-N

>  <JCHEM_ACCEPTOR_COUNT>  (1) 
3

>  <JCHEM_ATOM_COUNT>  (1) 
29

>  <JCHEM_AVERAGE_POLARIZABILITY>  (1) 
25.896511490983933

>  <JCHEM_BIOAVAILABILITY>  (1) 
1

>  <JCHEM_DONOR_COUNT>  (1) 
1

>  <JCHEM_FORMAL_CHARGE>  (1) 
0

>  <JCHEM_GHOSE_FILTER>  (1) 
1

>  <JCHEM_IUPAC>  (1) 
4-[(1-hydroxy-1,3-dihydro-2,1-benzoxaborol-5-yl)oxy]benzonitrile

>  <JCHEM_LOGP>  (1) 
3.3416999999999986

>  <JCHEM_MDDR_LIKE_RULE>  (1) 
0

>  <JCHEM_NUMBER_OF_RINGS>  (1) 
3

>  <JCHEM_PHYSIOLOGICAL_CHARGE>  (1) 
0

>  <JCHEM_PKA>  (1) 
15.716156415364605

>  <JCHEM_PKA_STRONGEST_ACIDIC>  (1) 
8.95451772974707

>  <JCHEM_PKA_STRONGEST_BASIC>  (1) 
-3.6802181720563483

>  <JCHEM_POLAR_SURFACE_AREA>  (1) 
62.480000000000004

>  <JCHEM_REFRACTIVITY>  (1) 
65.60280000000002

>  <JCHEM_ROTATABLE_BOND_COUNT>  (1) 
2

>  <JCHEM_RULE_OF_FIVE>  (1) 
1

>  <JCHEM_TRADITIONAL_IUPAC>  (1) 
4-[(1-hydroxy-3H-2,1-benzoxaborol-5-yl)oxy]benzonitrile

>  <JCHEM_VEBER_RULE>  (1) 
0

>  <MOLECULAR_WEIGHT>  (1) 
251.05

>  <PRODUCTS>  (1) 
Eucrisa

>  <SMILES>  (1) 
OB1OCC2=C1C=CC(OC1=CC=C(C=C1)C#N)=C2

$$$$
