65781
     RDKit          2D

 54 56  0  0  1  0  0  0  0  0999 V2000
    5.3063    2.0741    0.0000 S   0  0  0  0  0  0  0  0  0  0  0  0
    1.9007   -2.4530    0.0000 O   0  0  0  0  0  0  0  0  0  0  0  0
    3.1463   -3.1531    0.0000 O   0  0  0  0  0  0  0  0  0  0  0  0
    5.3031    2.8991    0.0000 O   0  0  0  0  0  0  0  0  0  0  0  0
    4.4813    2.0709    0.0000 O   0  0  0  0  0  0  0  0  0  0  0  0
    6.1312    2.0772    0.0000 O   0  0  0  0  0  0  0  0  0  0  0  0
    3.8673   -1.2831    0.0000 C   0  0  0  0  0  0  0  0  0  0  0  0
    3.8673   -0.4581    0.0000 C   0  0  0  0  0  0  0  0  0  0  0  0
    3.1298   -1.7243    0.0000 C   0  0  0  0  0  0  0  0  0  0  0  0
    3.1298   -0.0170    0.0000 C   0  0  0  0  0  0  0  0  0  0  0  0
    4.5818   -1.6956    0.0000 C   0  0  0  0  0  0  0  0  0  0  0  0
    2.3823   -1.3003    0.0000 C   0  0  0  0  0  0  0  0  0  0  0  0
    2.3823   -0.4410    0.0000 C   0  0  0  0  0  0  0  0  0  0  0  0
    4.5818   -0.0456    0.0000 C   0  0  0  0  0  0  0  0  0  0  0  0
    5.2962   -1.2831    0.0000 C   0  0  0  0  0  0  0  0  0  0  0  0
    3.8673    0.3669    0.0000 C   0  0  0  0  0  0  0  0  0  0  0  0
    5.2962   -0.4581    0.0000 C   0  0  0  0  0  0  0  0  0  0  0  0
    3.5505   -2.4339    0.0000 C   0  0  0  0  0  0  0  0  0  0  0  0
    2.7256   -2.4434    0.0000 C   0  0  0  0  0  0  0  0  0  0  0  0
    4.5686    0.8136    0.0000 C   0  0  0  0  0  0  0  0  0  0  0  0
    6.0470   -0.0399    0.0000 C   0  0  0  0  0  0  0  0  0  0  0  0
    5.3094    1.2491    0.0000 C   0  0  0  0  0  0  0  0  0  0  0  0
    6.0537    0.8194    0.0000 C   0  0  0  0  0  0  0  0  0  0  0  0
    6.7697    1.2291    0.0000 C   0  0  0  0  0  0  0  0  0  0  0  0
    7.4826    0.8139    0.0000 C   0  0  0  0  0  0  0  0  0  0  0  0
    6.7729    2.0541    0.0000 C   0  0  0  0  0  0  0  0  0  0  0  0
    0.0000    0.0000    0.0000 H   0  0  0  0  0  0  0  0  0  0  0  0
    0.0000    0.0000    0.0000 H   0  0  0  0  0  0  0  0  0  0  0  0
    0.0000    0.0000    0.0000 H   0  0  0  0  0  0  0  0  0  0  0  0
    0.0000    0.0000    0.0000 H   0  0  0  0  0  0  0  0  0  0  0  0
    0.0000    0.0000    0.0000 H   0  0  0  0  0  0  0  0  0  0  0  0
    0.0000    0.0000    0.0000 H   0  0  0  0  0  0  0  0  0  0  0  0
    0.0000    0.0000    0.0000 H   0  0  0  0  0  0  0  0  0  0  0  0
    0.0000    0.0000    0.0000 H   0  0  0  0  0  0  0  0  0  0  0  0
    0.0000    0.0000    0.0000 H   0  0  0  0  0  0  0  0  0  0  0  0
    0.0000    0.0000    0.0000 H   0  0  0  0  0  0  0  0  0  0  0  0
    0.0000    0.0000    0.0000 H   0  0  0  0  0  0  0  0  0  0  0  0
    0.0000    0.0000    0.0000 H   0  0  0  0  0  0  0  0  0  0  0  0
    0.0000    0.0000    0.0000 H   0  0  0  0  0  0  0  0  0  0  0  0
    0.0000    0.0000    0.0000 H   0  0  0  0  0  0  0  0  0  0  0  0
    0.0000    0.0000    0.0000 H   0  0  0  0  0  0  0  0  0  0  0  0
    0.0000    0.0000    0.0000 H   0  0  0  0  0  0  0  0  0  0  0  0
    0.0000    0.0000    0.0000 H   0  0  0  0  0  0  0  0  0  0  0  0
    0.0000    0.0000    0.0000 H   0  0  0  0  0  0  0  0  0  0  0  0
    0.0000    0.0000    0.0000 H   0  0  0  0  0  0  0  0  0  0  0  0
    0.0000    0.0000    0.0000 H   0  0  0  0  0  0  0  0  0  0  0  0
    0.0000    0.0000    0.0000 H   0  0  0  0  0  0  0  0  0  0  0  0
    0.0000    0.0000    0.0000 H   0  0  0  0  0  0  0  0  0  0  0  0
    0.0000    0.0000    0.0000 H   0  0  0  0  0  0  0  0  0  0  0  0
    0.0000    0.0000    0.0000 H   0  0  0  0  0  0  0  0  0  0  0  0
    0.0000    0.0000    0.0000 H   0  0  0  0  0  0  0  0  0  0  0  0
    0.0000    0.0000    0.0000 H   0  0  0  0  0  0  0  0  0  0  0  0
    0.0000    0.0000    0.0000 H   0  0  0  0  0  0  0  0  0  0  0  0
    0.0000    0.0000    0.0000 H   0  0  0  0  0  0  0  0  0  0  0  0
  1  4  1  0
  1  5  2  0
  1  6  2  0
  1 22  1  0
  2 19  1  0
  3 19  2  0
  7  8  1  0
  7  9  1  0
  7 11  1  0
  8 10  1  0
  8 14  1  0
  8 16  1  1
  9 12  1  0
  9 18  1  1
  9 19  1  0
 10 13  1  0
 11 15  1  0
 12 13  1  0
 14 17  2  0
 14 20  1  0
 15 17  1  0
 17 21  1  0
 20 22  2  0
 21 23  2  0
 22 23  1  0
 23 24  1  0
 24 25  1  0
 24 26  1  0
  2 27  1  0
  4 28  1  0
  7 29  1  6
 10 30  1  0
 10 31  1  0
 11 32  1  0
 11 33  1  0
 12 34  1  0
 12 35  1  0
 13 36  1  0
 13 37  1  0
 15 38  1  0
 15 39  1  0
 16 40  1  0
 16 41  1  0
 16 42  1  0
 18 43  1  0
 18 44  1  0
 18 45  1  0
 20 46  1  0
 21 47  1  0
 24 48  1  0
 25 49  1  0
 25 50  1  0
 25 51  1  0
 26 52  1  0
 26 53  1  0
 26 54  1  0
M  END
>  <ALOGPS_LOGP>  (1) 
1.50

>  <ALOGPS_LOGS>  (1) 
-4.95

>  <ALOGPS_SOLUBILITY>  (1) 
4.26e-03 g/l

>  <DATABASE_ID>  (1) 
DB05265

>  <DATABASE_NAME>  (1) 
drugbank

>  <DRUGBANK_ID>  (1) 
DB05265

>  <DRUG_GROUPS>  (1) 
approved; investigational

>  <EXACT_MASS>  (1) 
380.165744696

>  <FORMULA>  (1) 
C20H28O5S

>  <GENERIC_NAME>  (1) 
Ecabet

>  <INCHI_IDENTIFIER>  (1) 
InChI=1S/C20H28O5S/c1-12(2)14-10-13-6-7-17-19(3,8-5-9-20(17,4)18(21)22)15(13)11-16(14)26(23,24)25/h10-12,17H,5-9H2,1-4H3,(H,21,22)(H,23,24,25)/t17-,19-,20-/m1/s1

>  <INCHI_KEY>  (1) 
IWCWQNVIUXZOMJ-MISYRCLQSA-N

>  <INTERNATIONAL_BRANDS>  (1) 
Gastrom

>  <JCHEM_ACCEPTOR_COUNT>  (1) 
5

>  <JCHEM_AVERAGE_POLARIZABILITY>  (1) 
41.27424888871326

>  <JCHEM_BIOAVAILABILITY>  (1) 
1

>  <JCHEM_DONOR_COUNT>  (1) 
2

>  <JCHEM_FORMAL_CHARGE>  (1) 
0

>  <JCHEM_GHOSE_FILTER>  (1) 
1

>  <JCHEM_IUPAC>  (1) 
(1R,4aS,10aR)-1,4a-dimethyl-7-(propan-2-yl)-6-sulfo-1,2,3,4,4a,9,10,10a-octahydrophenanthrene-1-carboxylic acid

>  <JCHEM_LOGP>  (1) 
4.929671444666667

>  <JCHEM_MDDR_LIKE_RULE>  (1) 
0

>  <JCHEM_NUMBER_OF_RINGS>  (1) 
3

>  <JCHEM_PHYSIOLOGICAL_CHARGE>  (1) 
-2

>  <JCHEM_PKA>  (1) 
3.8910622691475085

>  <JCHEM_PKA_STRONGEST_ACIDIC>  (1) 
-1.4779680286063401

>  <JCHEM_POLAR_SURFACE_AREA>  (1) 
91.66999999999999

>  <JCHEM_REFRACTIVITY>  (1) 
100.06649999999999

>  <JCHEM_ROTATABLE_BOND_COUNT>  (1) 
3

>  <JCHEM_RULE_OF_FIVE>  (1) 
1

>  <JCHEM_TRADITIONAL_IUPAC>  (1) 
ecabet

>  <JCHEM_VEBER_RULE>  (1) 
0

>  <MOLECULAR_WEIGHT>  (1) 
380.498

>  <SALTS>  (1) 
Ecabet sodium

>  <SMILES>  (1) 
[H][C@@]12CCC3=CC(C(C)C)=C(C=C3[C@@]1(C)CCC[C@@]2(C)C(O)=O)S(O)(=O)=O

$$$$
