
     RDKit          2D

 78 69  0  0  1  0  0  0  0  0999 V2000
    5.9072  -16.0809    0.0000 Na  0  0  0  0  0  0  0  0  0  0  0  0
    9.4955  -20.2786    0.0000 Na  0  0  0  0  0  0  0  0  0  0  0  0
    2.5916  -20.2786    0.0000 Na  0  0  0  0  0  0  0  0  0  0  0  0
    5.2470  -17.8073    0.0000 Sb  0  0  0  0  0  0  0  0  0  0  0  0
    5.2470  -18.6323    0.0000 O   0  0  0  0  0  0  0  0  0  0  0  0
    4.5325  -17.3948    0.0000 O   0  0  0  0  0  0  0  0  0  0  0  0
    4.5325  -19.0448    0.0000 C   0  0  0  0  0  0  0  0  0  0  0  0
    3.8180  -17.8073    0.0000 C   0  0  0  0  0  0  0  0  0  0  0  0
    3.8180  -18.6323    0.0000 C   0  0  0  0  0  0  0  0  0  0  0  0
    4.4531  -18.0309    0.0000 O   0  0  0  0  0  0  0  0  0  0  0  0
    4.5326  -19.8698    0.0000 C   0  0  0  0  0  0  0  0  0  0  0  0
    3.8181  -20.2823    0.0000 O   0  0  0  0  0  0  0  0  0  0  0  0
    5.2470  -20.2822    0.0000 O   0  0  0  0  0  0  0  0  0  0  0  0
    3.1036  -17.3948    0.0000 C   0  0  0  0  0  0  0  0  0  0  0  0
    3.1036  -16.5697    0.0000 O   0  0  0  0  0  0  0  0  0  0  0  0
    2.3891  -17.8073    0.0000 C   0  0  0  0  0  0  0  0  0  0  0  0
    1.6746  -17.3948    0.0000 O   0  0  0  0  0  0  0  0  0  0  0  0
    5.9639  -17.4047    0.0000 O   0  0  0  0  0  0  0  0  0  0  0  0
    6.6808  -17.8073    0.0000 Sb  0  0  0  0  0  0  0  0  0  0  0  0
    6.6808  -18.6323    0.0000 O   0  0  0  0  0  0  0  0  0  0  0  0
    7.3953  -17.3948    0.0000 O   0  0  0  0  0  0  0  0  0  0  0  0
    7.3953  -19.0448    0.0000 C   0  0  0  0  0  0  0  0  0  0  0  0
    8.1098  -17.8073    0.0000 C   0  0  0  0  0  0  0  0  0  0  0  0
    8.1098  -18.6323    0.0000 C   0  0  0  0  0  0  0  0  0  0  0  0
    7.4748  -18.0309    0.0000 O   0  0  0  0  0  0  0  0  0  0  0  0
    7.3952  -19.8698    0.0000 C   0  0  0  0  0  0  0  0  0  0  0  0
    8.1097  -20.2823    0.0000 O   0  0  0  0  0  0  0  0  0  0  0  0
    6.6808  -20.2822    0.0000 O   0  0  0  0  0  0  0  0  0  0  0  0
    8.8242  -17.3948    0.0000 C   0  0  0  0  0  0  0  0  0  0  0  0
    8.8242  -16.5697    0.0000 O   0  0  0  0  0  0  0  0  0  0  0  0
    9.5387  -17.8073    0.0000 C   0  0  0  0  0  0  0  0  0  0  0  0
   10.2532  -17.3948    0.0000 O   0  0  0  0  0  0  0  0  0  0  0  0
    5.2482  -16.9872    0.0000 O   0  0  0  0  0  0  0  0  0  0  0  0
    6.6796  -16.9872    0.0000 O   0  0  0  0  0  0  0  0  0  0  0  0
    6.1658  -21.4869    0.0000 O   0  0  0  0  0  0  0  0  0  0  0  0
    6.1734  -22.1550    0.0000 O   0  0  0  0  0  0  0  0  0  0  0  0
    6.1658  -22.7994    0.0000 O   0  0  0  0  0  0  0  0  0  0  0  0
    8.4520  -21.4869    0.0000 O   0  0  0  0  0  0  0  0  0  0  0  0
    8.4596  -22.1550    0.0000 O   0  0  0  0  0  0  0  0  0  0  0  0
    8.4520  -22.7994    0.0000 O   0  0  0  0  0  0  0  0  0  0  0  0
    3.8995  -21.4869    0.0000 O   0  0  0  0  0  0  0  0  0  0  0  0
    3.9071  -22.1550    0.0000 O   0  0  0  0  0  0  0  0  0  0  0  0
    3.8995  -22.7994    0.0000 O   0  0  0  0  0  0  0  0  0  0  0  0
    0.0000    0.0000    0.0000 H   0  0  0  0  0  0  0  0  0  0  0  0
    0.0000    0.0000    0.0000 H   0  0  0  0  0  0  0  0  0  0  0  0
    0.0000    0.0000    0.0000 H   0  0  0  0  0  0  0  0  0  0  0  0
    0.0000    0.0000    0.0000 H   0  0  0  0  0  0  0  0  0  0  0  0
    0.0000    0.0000    0.0000 H   0  0  0  0  0  0  0  0  0  0  0  0
    0.0000    0.0000    0.0000 H   0  0  0  0  0  0  0  0  0  0  0  0
    0.0000    0.0000    0.0000 H   0  0  0  0  0  0  0  0  0  0  0  0
    0.0000    0.0000    0.0000 H   0  0  0  0  0  0  0  0  0  0  0  0
    0.0000    0.0000    0.0000 H   0  0  0  0  0  0  0  0  0  0  0  0
    0.0000    0.0000    0.0000 H   0  0  0  0  0  0  0  0  0  0  0  0
    0.0000    0.0000    0.0000 H   0  0  0  0  0  0  0  0  0  0  0  0
    0.0000    0.0000    0.0000 H   0  0  0  0  0  0  0  0  0  0  0  0
    0.0000    0.0000    0.0000 H   0  0  0  0  0  0  0  0  0  0  0  0
    0.0000    0.0000    0.0000 H   0  0  0  0  0  0  0  0  0  0  0  0
    0.0000    0.0000    0.0000 H   0  0  0  0  0  0  0  0  0  0  0  0
    0.0000    0.0000    0.0000 H   0  0  0  0  0  0  0  0  0  0  0  0
    0.0000    0.0000    0.0000 H   0  0  0  0  0  0  0  0  0  0  0  0
    0.0000    0.0000    0.0000 H   0  0  0  0  0  0  0  0  0  0  0  0
    0.0000    0.0000    0.0000 H   0  0  0  0  0  0  0  0  0  0  0  0
    0.0000    0.0000    0.0000 H   0  0  0  0  0  0  0  0  0  0  0  0
    0.0000    0.0000    0.0000 H   0  0  0  0  0  0  0  0  0  0  0  0
    0.0000    0.0000    0.0000 H   0  0  0  0  0  0  0  0  0  0  0  0
    0.0000    0.0000    0.0000 H   0  0  0  0  0  0  0  0  0  0  0  0
    0.0000    0.0000    0.0000 H   0  0  0  0  0  0  0  0  0  0  0  0
    0.0000    0.0000    0.0000 H   0  0  0  0  0  0  0  0  0  0  0  0
    0.0000    0.0000    0.0000 H   0  0  0  0  0  0  0  0  0  0  0  0
    0.0000    0.0000    0.0000 H   0  0  0  0  0  0  0  0  0  0  0  0
    0.0000    0.0000    0.0000 H   0  0  0  0  0  0  0  0  0  0  0  0
    0.0000    0.0000    0.0000 H   0  0  0  0  0  0  0  0  0  0  0  0
    0.0000    0.0000    0.0000 H   0  0  0  0  0  0  0  0  0  0  0  0
    0.0000    0.0000    0.0000 H   0  0  0  0  0  0  0  0  0  0  0  0
    0.0000    0.0000    0.0000 H   0  0  0  0  0  0  0  0  0  0  0  0
    0.0000    0.0000    0.0000 H   0  0  0  0  0  0  0  0  0  0  0  0
    0.0000    0.0000    0.0000 H   0  0  0  0  0  0  0  0  0  0  0  0
    0.0000    0.0000    0.0000 H   0  0  0  0  0  0  0  0  0  0  0  0
  5  4  1  0
  6  4  1  0
  7  5  1  0
  8  6  1  0
  9  7  1  0
  9  8  1  0
  4 10  1  0
  9 10  1  0
  7 11  1  6
 11 12  1  0
 11 13  2  0
  8 14  1  0
 14 15  1  1
 14 16  1  0
 16 17  1  0
  4 18  1  0
 20 19  1  0
 21 19  1  0
 22 20  1  0
 23 21  1  0
 24 22  1  0
 24 23  1  0
 19 25  1  0
 24 25  1  0
 22 26  1  1
 26 27  1  0
 26 28  2  0
 23 29  1  0
 29 30  1  6
 29 31  1  0
 31 32  1  0
 19 18  1  0
  4 33  1  0
 19 34  1  0
  7 44  1  0
  8 45  1  6
  9 46  1  1
 14 47  1  0
 15 48  1  0
 16 49  1  0
 16 50  1  0
 17 51  1  0
 22 52  1  0
 23 53  1  1
 24 54  1  6
 29 55  1  0
 30 56  1  0
 31 57  1  0
 31 58  1  0
 32 59  1  0
 33 60  1  0
 35 61  1  0
 35 62  1  0
 36 63  1  0
 36 64  1  0
 37 65  1  0
 37 66  1  0
 38 67  1  0
 38 68  1  0
 39 69  1  0
 39 70  1  0
 40 71  1  0
 40 72  1  0
 41 73  1  0
 41 74  1  0
 42 75  1  0
 42 76  1  0
 43 77  1  0
 43 78  1  0
M  CHG  6   1   1   2   1   3   1  12  -1  27  -1  34  -1
M  END
>  <DATABASE_ID>  (1) 
DB05630

>  <DATABASE_NAME>  (1) 
drugbank

>  <DRUGBANK_ID>  (1) 
DB05630

>  <DRUG_GROUPS>  (1) 
approved; investigational

>  <EXACT_MASS>  (1) 
905.918601405

>  <FORMULA>  (1) 
C12H35Na3O26Sb2

>  <GENERIC_NAME>  (1) 
Sodium stibogluconate

>  <INCHI_IDENTIFIER>  (1) 
InChI=1S/2C6H9O7.3Na.10H2O.2O.2Sb/c2*7-1-2(8)3(9)4(10)5(11)6(12)13;;;;;;;;;;;;;;;;;/h2*2-5,7-8H,1H2,(H,12,13);;;;10*1H2;;;;/q2*-3;3*+1;;;;;;;;;;;;-1;+3;+4/p-3/t2*2-,3-,4+,5-;;;;;;;;;;;;;;;;;/m11................./s1

>  <INCHI_KEY>  (1) 
YQDGWZZYGYKDLR-UZVLBLASSA-K

>  <INTERNATIONAL_BRANDS>  (1) 
Pentostam

>  <JCHEM_ACCEPTOR_COUNT>  (1) 
17

>  <JCHEM_AVERAGE_POLARIZABILITY>  (1) 
39.77868957221342

>  <JCHEM_BIOAVAILABILITY>  (1) 
0

>  <JCHEM_DONOR_COUNT>  (1) 
5

>  <JCHEM_FORMAL_CHARGE>  (1) 
0

>  <JCHEM_GHOSE_FILTER>  (1) 
0

>  <JCHEM_IUPAC>  (1) 
trisodium (3R,4S,5R)-1-{[(3R,4S,5R)-3-carboxylato-5-[(1R)-1,2-dihydroxyethyl]-1-oxido-2,6,7-trioxa-1-stibabicyclo[2.2.1]heptan-1-yl]oxy}-5-[(1R)-1,2-dihydroxyethyl]-1-hydroxy-2,6,7-trioxa-1-stibabicyclo[2.2.1]heptane-3-carboxylate nonahydrate

>  <JCHEM_LOGP>  (1) 
-3.4261999999999997

>  <JCHEM_MDDR_LIKE_RULE>  (1) 
1

>  <JCHEM_NUMBER_OF_RINGS>  (1) 
4

>  <JCHEM_PHYSIOLOGICAL_CHARGE>  (1) 
-2

>  <JCHEM_PKA>  (1) 
2.9592532500968143

>  <JCHEM_PKA_STRONGEST_ACIDIC>  (1) 
2.2899140079065985

>  <JCHEM_PKA_STRONGEST_BASIC>  (1) 
-2.9728747248244423

>  <JCHEM_POLAR_SURFACE_AREA>  (1) 
269.0799999999999

>  <JCHEM_REFRACTIVITY>  (1) 
96.2875

>  <JCHEM_ROTATABLE_BOND_COUNT>  (1) 
8

>  <JCHEM_RULE_OF_FIVE>  (1) 
0

>  <JCHEM_TRADITIONAL_IUPAC>  (1) 
trisodium (3R,4S,5R)-1-{[(3R,4S,5R)-3-carboxylato-5-[(1R)-1,2-dihydroxyethyl]-1-oxido-2,6,7-trioxa-1-stibabicyclo[2.2.1]heptan-1-yl]oxy}-5-[(1R)-1,2-dihydroxyethyl]-1-hydroxy-2,6,7-trioxa-1-stibabicyclo[2.2.1]heptane-3-carboxylate nonahydrate

>  <JCHEM_VEBER_RULE>  (1) 
0

>  <MOLECULAR_WEIGHT>  (1) 
907.88

>  <SMILES>  (1) 
O.O.O.O.O.O.O.O.O.[Na+].[Na+].[Na+].[H][C@@]1(O[Sb]2(O)(O[Sb]34([O-])O[C@@H](C([O-])=O)[C@@]([H])(O3)[C@]([H])(O4)[C@H](O)CO)O[C@@H](C([O-])=O)[C@@]1([H])O2)[C@H](O)CO

$$$$
