
     RDKit          2D

 30 32  0  0  0  0  0  0  0  0999 V2000
    5.8469    1.1959    0.0000 F   0  0  0  0  0  0  0  0  0  0  0  0
    3.3809    1.3684    0.0000 O   0  0  0  0  0  0  0  0  0  0  0  0
    2.3645   -3.2012    0.0000 O   0  0  0  0  0  0  0  0  0  0  0  0
    1.6500   -1.9637    0.0000 O   0  0  0  0  0  0  0  0  0  0  0  0
    4.4609    0.5838    0.0000 N   0  0  0  0  0  0  0  0  0  0  0  0
    3.1260    0.5838    0.0000 N   0  0  0  0  0  0  0  0  0  0  0  0
    3.7935   -0.7262    0.0000 C   0  0  0  0  0  0  0  0  0  0  0  0
    3.7935    0.0988    0.0000 C   0  0  0  0  0  0  0  0  0  0  0  0
    4.6909    2.0358    0.0000 C   0  0  0  0  0  0  0  0  0  0  0  0
    4.2060    1.3684    0.0000 C   0  0  0  0  0  0  0  0  0  0  0  0
    3.0790   -1.1387    0.0000 C   0  0  0  0  0  0  0  0  0  0  0  0
    3.0790   -1.9637    0.0000 C   0  0  0  0  0  0  0  0  0  0  0  0
    4.5079   -1.1387    0.0000 C   0  0  0  0  0  0  0  0  0  0  0  0
    3.7935   -2.3762    0.0000 C   0  0  0  0  0  0  0  0  0  0  0  0
    4.5079   -1.9637    0.0000 C   0  0  0  0  0  0  0  0  0  0  0  0
    5.5114    1.9496    0.0000 C   0  0  0  0  0  0  0  0  0  0  0  0
    4.3553    2.7895    0.0000 C   0  0  0  0  0  0  0  0  0  0  0  0
    5.9963    2.6170    0.0000 C   0  0  0  0  0  0  0  0  0  0  0  0
    4.8402    3.4569    0.0000 C   0  0  0  0  0  0  0  0  0  0  0  0
    5.6607    3.3707    0.0000 C   0  0  0  0  0  0  0  0  0  0  0  0
    2.3645   -2.3762    0.0000 C   0  0  0  0  0  0  0  0  0  0  0  0
    0.0000    0.0000    0.0000 H   0  0  0  0  0  0  0  0  0  0  0  0
    0.0000    0.0000    0.0000 H   0  0  0  0  0  0  0  0  0  0  0  0
    0.0000    0.0000    0.0000 H   0  0  0  0  0  0  0  0  0  0  0  0
    0.0000    0.0000    0.0000 H   0  0  0  0  0  0  0  0  0  0  0  0
    0.0000    0.0000    0.0000 H   0  0  0  0  0  0  0  0  0  0  0  0
    0.0000    0.0000    0.0000 H   0  0  0  0  0  0  0  0  0  0  0  0
    0.0000    0.0000    0.0000 H   0  0  0  0  0  0  0  0  0  0  0  0
    0.0000    0.0000    0.0000 H   0  0  0  0  0  0  0  0  0  0  0  0
    0.0000    0.0000    0.0000 H   0  0  0  0  0  0  0  0  0  0  0  0
  1 16  1  0
  2  6  1  0
  2 10  1  0
  3 21  1  0
  4 21  2  0
  5  8  1  0
  5 10  2  0
  6  8  2  0
  7  8  1  0
  7 11  2  0
  7 13  1  0
  9 10  1  0
  9 16  2  0
  9 17  1  0
 11 12  1  0
 12 14  2  0
 12 21  1  0
 13 15  2  0
 14 15  1  0
 16 18  1  0
 17 19  2  0
 18 20  2  0
 19 20  1  0
  3 22  1  0
 11 23  1  0
 13 24  1  0
 14 25  1  0
 15 26  1  0
 17 27  1  0
 18 28  1  0
 19 29  1  0
 20 30  1  0
M  END
>  <ALOGPS_LOGP>  (1) 
2.96

>  <ALOGPS_LOGS>  (1) 
-3.38

>  <ALOGPS_SOLUBILITY>  (1) 
1.17e-01 g/l

>  <DATABASE_ID>  (1) 
DB05016

>  <DATABASE_NAME>  (1) 
drugbank

>  <DRUGBANK_ID>  (1) 
DB05016

>  <DRUG_GROUPS>  (1) 
approved

>  <EXACT_MASS>  (1) 
284.059720369

>  <FORMULA>  (1) 
C15H9FN2O3

>  <GENERIC_NAME>  (1) 
Ataluren

>  <INCHI_IDENTIFIER>  (1) 
InChI=1S/C15H9FN2O3/c16-12-7-2-1-6-11(12)14-17-13(18-21-14)9-4-3-5-10(8-9)15(19)20/h1-8H,(H,19,20)

>  <INCHI_KEY>  (1) 
OOUGLTULBSNHNF-UHFFFAOYSA-N

>  <INTERNATIONAL_BRANDS>  (1) 
Translarna

>  <JCHEM_ACCEPTOR_COUNT>  (1) 
4

>  <JCHEM_AVERAGE_POLARIZABILITY>  (1) 
27.656075016955345

>  <JCHEM_BIOAVAILABILITY>  (1) 
1

>  <JCHEM_DONOR_COUNT>  (1) 
1

>  <JCHEM_FORMAL_CHARGE>  (1) 
0

>  <JCHEM_GHOSE_FILTER>  (1) 
1

>  <JCHEM_IUPAC>  (1) 
3-[5-(2-fluorophenyl)-1,2,4-oxadiazol-3-yl]benzoic acid

>  <JCHEM_LOGP>  (1) 
3.9193923773333337

>  <JCHEM_MDDR_LIKE_RULE>  (1) 
0

>  <JCHEM_NUMBER_OF_RINGS>  (1) 
3

>  <JCHEM_PHYSIOLOGICAL_CHARGE>  (1) 
-1

>  <JCHEM_PKA_STRONGEST_ACIDIC>  (1) 
3.9006182020316236

>  <JCHEM_PKA_STRONGEST_BASIC>  (1) 
-1.5968680880782573

>  <JCHEM_POLAR_SURFACE_AREA>  (1) 
76.22

>  <JCHEM_REFRACTIVITY>  (1) 
94.6594

>  <JCHEM_ROTATABLE_BOND_COUNT>  (1) 
3

>  <JCHEM_RULE_OF_FIVE>  (1) 
1

>  <JCHEM_TRADITIONAL_IUPAC>  (1) 
ataluren

>  <JCHEM_VEBER_RULE>  (1) 
0

>  <MOLECULAR_WEIGHT>  (1) 
284.242

>  <PRODUCTS>  (1) 
Translarna

>  <SMILES>  (1) 
OC(=O)C1=CC=CC(=C1)C1=NOC(=N1)C1=CC=CC=C1F

>  <SYNONYMS>  (1) 
3-[5-(2-fluorophenyl)-1,2,4-oxadiazol-3-yl]benzoic acid

$$$$
