
     RDKit          2D

 65 68  0  0  1  0  0  0  0  0999 V2000
    6.3499    0.0304    0.0000 O   0  0  0  0  0  0  0  0  0  0  0  0
    4.1341   -0.9774    0.0000 O   0  0  0  0  0  0  0  0  0  0  0  0
    7.0508   -0.7623    0.0000 O   0  0  0  0  0  0  0  0  0  0  0  0
    6.3499    0.8555    0.0000 O   0  0  0  0  0  0  0  0  0  0  0  0
    5.6354    2.0930    0.0000 O   0  0  0  0  0  0  0  0  0  0  0  0
    7.3454   -2.1606    0.0000 O   0  0  0  0  0  0  0  0  0  0  0  0
    2.7774    0.4430    0.0000 C   0  0  0  0  0  0  0  0  0  0  0  0
    2.7774   -0.3821    0.0000 C   0  0  0  0  0  0  0  0  0  0  0  0
    2.0625    0.0304    0.0000 C   0  0  0  0  0  0  0  0  0  0  0  0
    3.4920    0.8555    0.0000 C   0  0  0  0  0  0  0  0  0  0  0  0
    3.4920   -0.7946    0.0000 C   0  0  0  0  0  0  0  0  0  0  0  0
    4.9209   -0.7946    0.0000 C   0  0  0  0  0  0  0  0  0  0  0  0
    4.2064   -0.3821    0.0000 C   0  0  0  0  0  0  0  0  0  0  0  0
    5.6354   -0.3821    0.0000 C   0  0  0  0  0  0  0  0  0  0  0  0
    3.9782   -0.1672    0.0000 C   0  0  0  0  0  0  0  0  0  0  0  0
    1.6500    0.7449    0.0000 C   0  0  0  0  0  0  0  0  0  0  0  0
    1.6500   -0.6840    0.0000 C   0  0  0  0  0  0  0  0  0  0  0  0
    4.2064    0.4430    0.0000 C   0  0  0  0  0  0  0  0  0  0  0  0
    5.0935   -1.5963    0.0000 C   0  0  0  0  0  0  0  0  0  0  0  0
    5.6354    0.4430    0.0000 C   0  0  0  0  0  0  0  0  0  0  0  0
    6.2435   -0.9324    0.0000 C   0  0  0  0  0  0  0  0  0  0  0  0
    4.9209    0.0304    0.0000 C   0  0  0  0  0  0  0  0  0  0  0  0
    4.9209    0.8555    0.0000 C   0  0  0  0  0  0  0  0  0  0  0  0
    5.9092   -1.6814    0.0000 C   0  0  0  0  0  0  0  0  0  0  0  0
    4.9209    1.6805    0.0000 C   0  0  0  0  0  0  0  0  0  0  0  0
    6.3217   -2.3959    0.0000 C   0  0  0  0  0  0  0  0  0  0  0  0
    7.6017   -1.3764    0.0000 C   0  0  0  0  0  0  0  0  0  0  0  0
    8.4090   -1.2063    0.0000 C   0  0  0  0  0  0  0  0  0  0  0  0
    8.6653   -0.4220    0.0000 C   0  0  0  0  0  0  0  0  0  0  0  0
    8.9600   -1.8203    0.0000 C   0  0  0  0  0  0  0  0  0  0  0  0
    8.7037   -2.6045    0.0000 C   0  0  0  0  0  0  0  0  0  0  0  0
    0.0000    0.0000    0.0000 H   0  0  0  0  0  0  0  0  0  0  0  0
    0.0000    0.0000    0.0000 H   0  0  0  0  0  0  0  0  0  0  0  0
    0.0000    0.0000    0.0000 H   0  0  0  0  0  0  0  0  0  0  0  0
    0.0000    0.0000    0.0000 H   0  0  0  0  0  0  0  0  0  0  0  0
    0.0000    0.0000    0.0000 H   0  0  0  0  0  0  0  0  0  0  0  0
    0.0000    0.0000    0.0000 H   0  0  0  0  0  0  0  0  0  0  0  0
    0.0000    0.0000    0.0000 H   0  0  0  0  0  0  0  0  0  0  0  0
    0.0000    0.0000    0.0000 H   0  0  0  0  0  0  0  0  0  0  0  0
    0.0000    0.0000    0.0000 H   0  0  0  0  0  0  0  0  0  0  0  0
    0.0000    0.0000    0.0000 H   0  0  0  0  0  0  0  0  0  0  0  0
    0.0000    0.0000    0.0000 H   0  0  0  0  0  0  0  0  0  0  0  0
    0.0000    0.0000    0.0000 H   0  0  0  0  0  0  0  0  0  0  0  0
    0.0000    0.0000    0.0000 H   0  0  0  0  0  0  0  0  0  0  0  0
    0.0000    0.0000    0.0000 H   0  0  0  0  0  0  0  0  0  0  0  0
    0.0000    0.0000    0.0000 H   0  0  0  0  0  0  0  0  0  0  0  0
    0.0000    0.0000    0.0000 H   0  0  0  0  0  0  0  0  0  0  0  0
    0.0000    0.0000    0.0000 H   0  0  0  0  0  0  0  0  0  0  0  0
    0.0000    0.0000    0.0000 H   0  0  0  0  0  0  0  0  0  0  0  0
    0.0000    0.0000    0.0000 H   0  0  0  0  0  0  0  0  0  0  0  0
    0.0000    0.0000    0.0000 H   0  0  0  0  0  0  0  0  0  0  0  0
    0.0000    0.0000    0.0000 H   0  0  0  0  0  0  0  0  0  0  0  0
    0.0000    0.0000    0.0000 H   0  0  0  0  0  0  0  0  0  0  0  0
    0.0000    0.0000    0.0000 H   0  0  0  0  0  0  0  0  0  0  0  0
    0.0000    0.0000    0.0000 H   0  0  0  0  0  0  0  0  0  0  0  0
    0.0000    0.0000    0.0000 H   0  0  0  0  0  0  0  0  0  0  0  0
    0.0000    0.0000    0.0000 H   0  0  0  0  0  0  0  0  0  0  0  0
    0.0000    0.0000    0.0000 H   0  0  0  0  0  0  0  0  0  0  0  0
    0.0000    0.0000    0.0000 H   0  0  0  0  0  0  0  0  0  0  0  0
    0.0000    0.0000    0.0000 H   0  0  0  0  0  0  0  0  0  0  0  0
    0.0000    0.0000    0.0000 H   0  0  0  0  0  0  0  0  0  0  0  0
    0.0000    0.0000    0.0000 H   0  0  0  0  0  0  0  0  0  0  0  0
    0.0000    0.0000    0.0000 H   0  0  0  0  0  0  0  0  0  0  0  0
    0.0000    0.0000    0.0000 H   0  0  0  0  0  0  0  0  0  0  0  0
    0.0000    0.0000    0.0000 H   0  0  0  0  0  0  0  0  0  0  0  0
 14  1  1  1
  2 15  2  0
 21  3  1  6
  3 27  1  0
 20  4  1  6
  5 25  1  0
  6 27  2  0
  7  8  1  0
  7  9  1  0
  7 10  1  0
  8  9  1  0
  8 11  1  0
  9 16  1  0
  9 17  1  0
 10 15  1  0
 10 18  1  0
 11 13  1  0
 12 13  1  0
 12 14  1  0
 12 15  1  0
 12 19  1  6
 13 22  1  1
 14 20  1  0
 14 21  1  0
 18 23  2  0
 19 24  2  0
 20 23  1  0
 21 24  1  0
 23 25  1  0
 24 26  1  0
 27 28  1  0
 28 29  1  0
 28 30  2  0
 30 31  1  0
  1 32  1  0
  4 33  1  0
  5 34  1  0
  7 35  1  6
  8 36  1  6
 10 37  1  1
 11 38  1  0
 11 39  1  0
 13 40  1  0
 16 41  1  0
 16 42  1  0
 16 43  1  0
 17 44  1  0
 17 45  1  0
 17 46  1  0
 18 47  1  0
 19 48  1  0
 20 49  1  0
 21 50  1  0
 22 51  1  0
 22 52  1  0
 22 53  1  0
 25 54  1  0
 25 55  1  0
 26 56  1  0
 26 57  1  0
 26 58  1  0
 29 59  1  0
 29 60  1  0
 29 61  1  0
 30 62  1  0
 31 63  1  0
 31 64  1  0
 31 65  1  0
M  END
>  <ALOGPS_LOGP>  (1) 
2.49

>  <ALOGPS_LOGS>  (1) 
-3.19

>  <ALOGPS_SOLUBILITY>  (1) 
2.79e-01 g/l

>  <DATABASE_ID>  (1) 
DB05013

>  <DATABASE_NAME>  (1) 
drugbank

>  <DRUGBANK_ID>  (1) 
DB05013

>  <DRUG_GROUPS>  (1) 
approved

>  <EXACT_MASS>  (1) 
430.23553882

>  <FORMULA>  (1) 
C25H34O6

>  <GENERIC_NAME>  (1) 
Ingenol Mebutate

>  <INCHI_IDENTIFIER>  (1) 
InChI=1S/C25H34O6/c1-7-12(2)22(29)31-21-13(3)10-24-14(4)8-17-18(23(17,5)6)16(20(24)28)9-15(11-26)19(27)25(21,24)30/h7,9-10,14,16-19,21,26-27,30H,8,11H2,1-6H3/b12-7-/t14-,16+,17-,18+,19-,21+,24+,25+/m1/s1

>  <INCHI_KEY>  (1) 
VDJHFHXMUKFKET-WDUFCVPESA-N

>  <INTERNATIONAL_BRANDS>  (1) 
Picato gel

>  <JCHEM_ACCEPTOR_COUNT>  (1) 
5

>  <JCHEM_BIOAVAILABILITY>  (1) 
1

>  <JCHEM_DONOR_COUNT>  (1) 
3

>  <JCHEM_FORMAL_CHARGE>  (1) 
0

>  <JCHEM_GHOSE_FILTER>  (1) 
1

>  <JCHEM_IUPAC>  (1) 
(1S,4S,5S,6R,9S,10R,12R,14R)-5,6-dihydroxy-7-(hydroxymethyl)-3,11,11,14-tetramethyl-15-oxotetracyclo[7.5.1.0¹,⁵.0¹⁰,¹²]pentadeca-2,7-dien-4-yl (2Z)-2-methylbut-2-enoate

>  <JCHEM_LOGP>  (1) 
2.505605261

>  <JCHEM_MDDR_LIKE_RULE>  (1) 
0

>  <JCHEM_NUMBER_OF_RINGS>  (1) 
4

>  <JCHEM_PHYSIOLOGICAL_CHARGE>  (1) 
0

>  <JCHEM_PKA>  (1) 
13.444218810904726

>  <JCHEM_PKA_STRONGEST_ACIDIC>  (1) 
12.091182222993204

>  <JCHEM_PKA_STRONGEST_BASIC>  (1) 
-2.7637287828251944

>  <JCHEM_POLAR_SURFACE_AREA>  (1) 
104.06

>  <JCHEM_REFRACTIVITY>  (1) 
117.85669999999998

>  <JCHEM_ROTATABLE_BOND_COUNT>  (1) 
4

>  <JCHEM_RULE_OF_FIVE>  (1) 
1

>  <JCHEM_TRADITIONAL_IUPAC>  (1) 
(1S,4S,5S,6R,9S,10R,12R,14R)-5,6-dihydroxy-7-(hydroxymethyl)-3,11,11,14-tetramethyl-15-oxotetracyclo[7.5.1.0¹,⁵.0¹⁰,¹²]pentadeca-2,7-dien-4-yl (2Z)-2-methylbut-2-enoate

>  <JCHEM_VEBER_RULE>  (1) 
0

>  <MOLECULAR_WEIGHT>  (1) 
430.5339

>  <PRODUCTS>  (1) 
Picato

>  <SMILES>  (1) 
OCC1=C[C@]2([H])C(=O)[C@]3(C=C(C)[C@H](OC(=O)C(\C)=C/C)[C@@]3(O)[C@@H]1O)[C@H](C)C[C@@]1([H])C(C)(C)[C@@]21[H]

$$$$
