
     RDKit          2D

 97105  0  0  1  0  0  0  0  0999 V2000
   12.6124   -3.3240    0.0000 O   0  0  0  0  0  0  0  0  0  0  0  0
   12.7839   -0.0421    0.0000 O   0  0  0  0  0  0  0  0  0  0  0  0
   11.4563   -2.6566    0.0000 O   0  0  0  0  0  0  0  0  0  0  0  0
   12.0694    1.1954    0.0000 O   0  0  0  0  0  0  0  0  0  0  0  0
   13.4984   -1.2796    0.0000 C   0  0  0  0  0  0  0  0  0  0  0  0
   13.4984   -2.1046    0.0000 C   0  0  0  0  0  0  0  0  0  0  0  0
   12.7839   -2.5171    0.0000 C   0  0  0  0  0  0  0  0  0  0  0  0
   12.7839   -0.8671    0.0000 C   0  0  0  0  0  0  0  0  0  0  0  0
   12.0694   -2.1046    0.0000 C   0  0  0  0  0  0  0  0  0  0  0  0
   12.0694   -1.2796    0.0000 C   0  0  0  0  0  0  0  0  0  0  0  0
   11.7919   -3.4103    0.0000 C   0  0  0  0  0  0  0  0  0  0  0  0
   11.3550   -0.8671    0.0000 C   0  0  0  0  0  0  0  0  0  0  0  0
   12.0694    0.3704    0.0000 C   0  0  0  0  0  0  0  0  0  0  0  0
   11.3550   -0.0421    0.0000 C   0  0  0  0  0  0  0  0  0  0  0  0
   14.2128   -0.8670    0.0000 C   0  0  0  0  0  0  0  0  0  0  0  0
   14.2128   -2.5171    0.0000 C   0  0  0  0  0  0  0  0  0  0  0  0
   14.9273   -2.1046    0.0000 N   0  0  0  0  0  0  0  0  0  0  0  0
   14.9273   -1.2795    0.0000 C   0  0  0  0  0  0  0  0  0  0  0  0
   15.6418   -0.8670    0.0000 C   0  0  0  0  0  0  0  0  0  0  0  0
   15.6418   -2.5171    0.0000 C   0  0  0  0  0  0  0  0  0  0  0  0
   16.3562   -2.1046    0.0000 C   0  0  0  0  0  0  0  0  0  0  0  0
   16.3562   -1.2795    0.0000 N   0  0  0  0  0  0  0  0  0  0  0  0
   12.7839    3.0370    0.0000 C   0  0  0  0  0  0  0  0  0  0  0  0
   12.0694    2.6244    0.0000 C   0  0  0  0  0  0  0  0  0  0  0  0
   12.0694    1.7994    0.0000 C   0  0  0  0  0  0  0  0  0  0  0  0
   12.7839    1.3869    0.0000 C   0  0  0  0  0  0  0  0  0  0  0  0
   13.4984    1.7994    0.0000 C   0  0  0  0  0  0  0  0  0  0  0  0
   13.4984    2.6244    0.0000 C   0  0  0  0  0  0  0  0  0  0  0  0
   14.2128    3.0370    0.0000 C   0  0  0  0  0  0  0  0  0  0  0  0
   14.2128    1.3869    0.0000 C   0  0  0  0  0  0  0  0  0  0  0  0
   14.9273    1.7994    0.0000 N   0  0  0  0  0  0  0  0  0  0  0  0
   14.9273    2.6244    0.0000 C   0  0  0  0  0  0  0  0  0  0  0  0
   11.3550    3.0369    0.0000 O   0  0  0  0  0  0  0  0  0  0  0  0
   11.3550    1.3869    0.0000 O   0  0  0  0  0  0  0  0  0  0  0  0
   10.6405    1.7994    0.0000 C   0  0  0  0  0  0  0  0  0  0  0  0
   14.3307   -1.6626    0.0000 C   0  0  0  0  0  0  0  0  0  0  0  0
   13.8003   -0.3883    0.0000 O   0  0  0  0  0  0  0  0  0  0  0  0
   14.6253   -0.1526    0.0000 S   0  0  0  0  0  0  0  0  0  0  0  0
   14.6253    0.6724    0.0000 C   0  0  0  0  0  0  0  0  0  0  0  0
   13.6295    0.8036    0.0000 C   0  0  0  0  0  0  0  0  0  0  0  0
   16.9890   -0.9215    0.0000 C   0  0  0  0  0  0  0  0  0  0  0  0
   12.8326    1.0171    0.0000 O   0  0  0  0  0  0  0  0  0  0  0  0
   15.6418   -3.3421    0.0000 O   0  0  0  0  0  0  0  0  0  0  0  0
   17.5946   -0.5362    0.0000 C   0  0  0  0  0  0  0  0  0  0  0  0
   17.5946    1.1138    0.0000 C   0  0  0  0  0  0  0  0  0  0  0  0
   16.8801    0.7013    0.0000 C   0  0  0  0  0  0  0  0  0  0  0  0
   18.3091   -0.1237    0.0000 C   0  0  0  0  0  0  0  0  0  0  0  0
   18.3091    0.7013    0.0000 C   0  0  0  0  0  0  0  0  0  0  0  0
   19.0235    1.1138    0.0000 C   0  0  0  0  0  0  0  0  0  0  0  0
   17.5946    1.9388    0.0000 O   0  0  0  0  0  0  0  0  0  0  0  0
   16.1657    1.1138    0.0000 O   0  0  0  0  0  0  0  0  0  0  0  0
   18.3091    2.3513    0.0000 C   0  0  0  0  0  0  0  0  0  0  0  0
   16.8801   -0.1237    0.0000 C   0  0  0  0  0  0  0  0  0  0  0  0
   17.5946   -1.3612    0.0000 C   0  0  0  0  0  0  0  0  0  0  0  0
    0.0000    0.0000    0.0000 H   0  0  0  0  0  0  0  0  0  0  0  0
    0.0000    0.0000    0.0000 H   0  0  0  0  0  0  0  0  0  0  0  0
    0.0000    0.0000    0.0000 H   0  0  0  0  0  0  0  0  0  0  0  0
    0.0000    0.0000    0.0000 H   0  0  0  0  0  0  0  0  0  0  0  0
    0.0000    0.0000    0.0000 H   0  0  0  0  0  0  0  0  0  0  0  0
    0.0000    0.0000    0.0000 H   0  0  0  0  0  0  0  0  0  0  0  0
    0.0000    0.0000    0.0000 H   0  0  0  0  0  0  0  0  0  0  0  0
    0.0000    0.0000    0.0000 H   0  0  0  0  0  0  0  0  0  0  0  0
    0.0000    0.0000    0.0000 H   0  0  0  0  0  0  0  0  0  0  0  0
    0.0000    0.0000    0.0000 H   0  0  0  0  0  0  0  0  0  0  0  0
    0.0000    0.0000    0.0000 H   0  0  0  0  0  0  0  0  0  0  0  0
    0.0000    0.0000    0.0000 H   0  0  0  0  0  0  0  0  0  0  0  0
    0.0000    0.0000    0.0000 H   0  0  0  0  0  0  0  0  0  0  0  0
    0.0000    0.0000    0.0000 H   0  0  0  0  0  0  0  0  0  0  0  0
    0.0000    0.0000    0.0000 H   0  0  0  0  0  0  0  0  0  0  0  0
    0.0000    0.0000    0.0000 H   0  0  0  0  0  0  0  0  0  0  0  0
    0.0000    0.0000    0.0000 H   0  0  0  0  0  0  0  0  0  0  0  0
    0.0000    0.0000    0.0000 H   0  0  0  0  0  0  0  0  0  0  0  0
    0.0000    0.0000    0.0000 H   0  0  0  0  0  0  0  0  0  0  0  0
    0.0000    0.0000    0.0000 H   0  0  0  0  0  0  0  0  0  0  0  0
    0.0000    0.0000    0.0000 H   0  0  0  0  0  0  0  0  0  0  0  0
    0.0000    0.0000    0.0000 H   0  0  0  0  0  0  0  0  0  0  0  0
    0.0000    0.0000    0.0000 H   0  0  0  0  0  0  0  0  0  0  0  0
    0.0000    0.0000    0.0000 H   0  0  0  0  0  0  0  0  0  0  0  0
    0.0000    0.0000    0.0000 H   0  0  0  0  0  0  0  0  0  0  0  0
    0.0000    0.0000    0.0000 H   0  0  0  0  0  0  0  0  0  0  0  0
    0.0000    0.0000    0.0000 H   0  0  0  0  0  0  0  0  0  0  0  0
    0.0000    0.0000    0.0000 H   0  0  0  0  0  0  0  0  0  0  0  0
    0.0000    0.0000    0.0000 H   0  0  0  0  0  0  0  0  0  0  0  0
    0.0000    0.0000    0.0000 H   0  0  0  0  0  0  0  0  0  0  0  0
    0.0000    0.0000    0.0000 H   0  0  0  0  0  0  0  0  0  0  0  0
    0.0000    0.0000    0.0000 H   0  0  0  0  0  0  0  0  0  0  0  0
    0.0000    0.0000    0.0000 H   0  0  0  0  0  0  0  0  0  0  0  0
    0.0000    0.0000    0.0000 H   0  0  0  0  0  0  0  0  0  0  0  0
    0.0000    0.0000    0.0000 H   0  0  0  0  0  0  0  0  0  0  0  0
    0.0000    0.0000    0.0000 H   0  0  0  0  0  0  0  0  0  0  0  0
    0.0000    0.0000    0.0000 H   0  0  0  0  0  0  0  0  0  0  0  0
    0.0000    0.0000    0.0000 H   0  0  0  0  0  0  0  0  0  0  0  0
    0.0000    0.0000    0.0000 H   0  0  0  0  0  0  0  0  0  0  0  0
    0.0000    0.0000    0.0000 H   0  0  0  0  0  0  0  0  0  0  0  0
    0.0000    0.0000    0.0000 H   0  0  0  0  0  0  0  0  0  0  0  0
    0.0000    0.0000    0.0000 H   0  0  0  0  0  0  0  0  0  0  0  0
    0.0000    0.0000    0.0000 H   0  0  0  0  0  0  0  0  0  0  0  0
  1  7  1  0
  1 11  1  0
  2  8  1  0
  2 13  1  0
  3  9  1  0
  3 11  1  0
  4 13  2  0
  5  8  2  0
  6  7  2  0
  7  9  1  0
  8 10  1  0
  9 10  2  0
 10 12  1  0
 13 14  1  0
  6 16  1  0
  5  6  1  0
 15  5  1  0
 16 17  1  0
 15 18  1  0
 19 18  1  0
 18 17  1  0
 17 20  1  0
 20 21  1  0
 21 22  1  0
 19 22  1  0
 23 24  2  0
 24 25  1  0
 25 26  2  0
 26 27  1  0
 23 28  1  0
 29 28  1  0
 27 28  2  0
 30 27  1  6
 30 31  1  0
 31 32  1  0
 29 32  1  0
 24 33  1  0
 25 34  1  0
 34 35  1  0
 16 36  1  0
 36 37  1  0
 15 38  1  0
 39 38  1  0
 30 39  1  0
 30 40  1  0
 37 40  1  0
 22 41  1  0
 40 42  2  0
 20 43  1  6
 54 44  1  0
 46 53  2  0
 53 44  1  0
 44 47  2  0
 45 46  1  0
 47 48  1  0
 45 48  2  0
 48 49  1  0
 45 50  1  0
 46 51  1  0
 50 52  1  0
 19 53  1  0
 21 54  1  0
 11 55  1  0
 11 56  1  0
 12 57  1  0
 12 58  1  0
 12 59  1  0
 14 60  1  0
 14 61  1  0
 14 62  1  0
 15 63  1  6
 16 64  1  1
 18 65  1  6
 19 66  1  6
 20 67  1  0
 21 68  1  6
 23 69  1  0
 26 70  1  0
 29 71  1  0
 29 72  1  0
 31 73  1  0
 32 74  1  0
 32 75  1  0
 33 76  1  0
 35 77  1  0
 35 78  1  0
 35 79  1  0
 36 80  1  0
 36 81  1  0
 39 82  1  0
 39 83  1  0
 41 84  1  0
 41 85  1  0
 41 86  1  0
 43 87  1  0
 47 88  1  0
 49 89  1  0
 49 90  1  0
 49 91  1  0
 51 92  1  0
 52 93  1  0
 52 94  1  0
 52 95  1  0
 54 96  1  0
 54 97  1  0
M  END
>  <ALOGPS_LOGP>  (1) 
2.04

>  <ALOGPS_LOGS>  (1) 
-3.37

>  <ALOGPS_SOLUBILITY>  (1) 
3.28e-01 g/l

>  <DATABASE_ID>  (1) 
DB05109

>  <DATABASE_NAME>  (1) 
drugbank

>  <DRUGBANK_ID>  (1) 
DB05109

>  <DRUG_GROUPS>  (1) 
approved; investigational

>  <EXACT_MASS>  (1) 
761.261829923

>  <FORMULA>  (1) 
C39H43N3O11S

>  <GENERIC_NAME>  (1) 
Trabectedin

>  <INCHI_IDENTIFIER>  (1) 
InChI=1S/C39H43N3O11S/c1-16-9-20-10-22-37(46)42-23-13-50-38(47)39(21-12-25(48-5)24(44)11-19(21)7-8-40-39)14-54-36(30(42)29(41(22)4)26(20)31(45)32(16)49-6)28-27(23)35-34(51-15-52-35)17(2)33(28)53-18(3)43/h9,11-12,22-23,29-30,36-37,40,44-46H,7-8,10,13-15H2,1-6H3/t22-,23-,29+,30+,36+,37-,39+/m0/s1

>  <INCHI_KEY>  (1) 
PKVRCIRHQMSYJX-AIFWHQITSA-N

>  <JCHEM_ACCEPTOR_COUNT>  (1) 
12

>  <JCHEM_AVERAGE_POLARIZABILITY>  (1) 
77.71850787416871

>  <JCHEM_BIOAVAILABILITY>  (1) 
0

>  <JCHEM_DONOR_COUNT>  (1) 
4

>  <JCHEM_FORMAL_CHARGE>  (1) 
0

>  <JCHEM_GHOSE_FILTER>  (1) 
0

>  <JCHEM_IUPAC>  (1) 
(1R,2R,3R,11S,12S,14R,26R)-5,6',12-trihydroxy-6,7'-dimethoxy-7,21,30-trimethyl-27-oxo-3',4'-dihydro-2'H-17,19,28-trioxa-24-thia-13,30-diazaspiro[heptacyclo[12.9.6.1³,¹¹.0²,¹³.0⁴,⁹.0¹⁵,²³.0¹⁶,²⁰]triacontane-26,1'-isoquinoline]-4,6,8,15,20,22-hexaen-22-yl acetate

>  <JCHEM_LOGP>  (1) 
3.9873105634094035

>  <JCHEM_MDDR_LIKE_RULE>  (1) 
0

>  <JCHEM_NUMBER_OF_RINGS>  (1) 
9

>  <JCHEM_PHYSIOLOGICAL_CHARGE>  (1) 
1

>  <JCHEM_PKA>  (1) 
10.061327741109995

>  <JCHEM_PKA_STRONGEST_ACIDIC>  (1) 
9.271279942189075

>  <JCHEM_PKA_STRONGEST_BASIC>  (1) 
7.661596208839099

>  <JCHEM_POLAR_SURFACE_AREA>  (1) 
168.72

>  <JCHEM_REFRACTIVITY>  (1) 
196.921

>  <JCHEM_ROTATABLE_BOND_COUNT>  (1) 
4

>  <JCHEM_RULE_OF_FIVE>  (1) 
0

>  <JCHEM_TRADITIONAL_IUPAC>  (1) 
yondelis

>  <JCHEM_VEBER_RULE>  (1) 
0

>  <MOLECULAR_WEIGHT>  (1) 
761.837

>  <PRODUCTS>  (1) 
Yondelis

>  <SMILES>  (1) 
[H][C@@]12[C@@H]3SC[C@]4(NCCC5=C4C=C(OC)C(O)=C5)C(=O)OC[C@H](N1[C@@H](O)[C@@H]1CC4=CC(C)=C(OC)C(O)=C4[C@H]2N1C)C1=C2OCOC2=C(C)C(OC(C)=O)=C31

>  <SYNONYMS>  (1) 
Ecteinascidin 743

$$$$
