
     RDKit          2D

 54 57  0  0  0  0  0  0  0  0999 V2000
    5.7209   -2.8930    0.0000 C   0  0  0  0  0  0  0  0  0  0  0  0
    6.4372   -2.4744    0.0000 C   0  0  0  0  0  0  0  0  0  0  0  0
    5.7209   -3.7116    0.0000 C   0  0  0  0  0  0  0  0  0  0  0  0
    6.4372   -1.6465    0.0000 N   0  0  0  0  0  0  0  0  0  0  0  0
    5.0139   -2.4744    0.0000 C   0  0  0  0  0  0  0  0  0  0  0  0
    7.1535   -2.8930    0.0000 N   0  0  0  0  0  0  0  0  0  0  0  0
    5.0139   -4.1209    0.0000 C   0  0  0  0  0  0  0  0  0  0  0  0
    4.2976   -3.7116    0.0000 C   0  0  0  0  0  0  0  0  0  0  0  0
    7.1442   -1.2465    0.0000 C   0  0  0  0  0  0  0  0  0  0  0  0
    4.2976   -2.8930    0.0000 C   0  0  0  0  0  0  0  0  0  0  0  0
    7.8604   -1.6465    0.0000 C   0  0  0  0  0  0  0  0  0  0  0  0
    6.4372   -4.1209    0.0000 N   0  0  0  0  0  0  0  0  0  0  0  0
    0.7256   -4.9674    0.0000 N   0  0  0  0  0  0  0  0  0  0  0  0
    8.5767   -1.2465    0.0000 C   0  0  0  0  0  0  0  0  0  0  0  0
    7.1535   -3.7116    0.0000 C   0  0  0  0  0  0  0  0  0  0  0  0
    3.5814   -4.1302    0.0000 O   0  0  0  0  0  0  0  0  0  0  0  0
    7.1442   -0.4093    0.0000 C   0  0  0  0  0  0  0  0  0  0  0  0
    8.5767   -0.4093    0.0000 C   0  0  0  0  0  0  0  0  0  0  0  0
    0.7163   -4.1488    0.0000 C   0  0  0  0  0  0  0  0  0  0  0  0
    1.4418   -5.3767    0.0000 C   0  0  0  0  0  0  0  0  0  0  0  0
    7.8604   -2.4744    0.0000 F   0  0  0  0  0  0  0  0  0  0  0  0
    2.8651   -3.7116    0.0000 C   0  0  0  0  0  0  0  0  0  0  0  0
    7.8604    0.0000    0.0000 C   0  0  0  0  0  0  0  0  0  0  0  0
    3.5814   -2.4744    0.0000 O   0  0  0  0  0  0  0  0  0  0  0  0
    9.3023    0.0000    0.0000 Br  0  0  0  0  0  0  0  0  0  0  0  0
    2.1489   -4.1395    0.0000 C   0  0  0  0  0  0  0  0  0  0  0  0
    2.1581   -4.9674    0.0000 C   0  0  0  0  0  0  0  0  0  0  0  0
    1.4326   -3.7302    0.0000 C   0  0  0  0  0  0  0  0  0  0  0  0
    0.0000   -5.3953    0.0000 C   0  0  0  0  0  0  0  0  0  0  0  0
    2.8651   -2.8930    0.0000 C   0  0  0  0  0  0  0  0  0  0  0  0
    0.0000    0.0000    0.0000 H   0  0  0  0  0  0  0  0  0  0  0  0
    0.0000    0.0000    0.0000 H   0  0  0  0  0  0  0  0  0  0  0  0
    0.0000    0.0000    0.0000 H   0  0  0  0  0  0  0  0  0  0  0  0
    0.0000    0.0000    0.0000 H   0  0  0  0  0  0  0  0  0  0  0  0
    0.0000    0.0000    0.0000 H   0  0  0  0  0  0  0  0  0  0  0  0
    0.0000    0.0000    0.0000 H   0  0  0  0  0  0  0  0  0  0  0  0
    0.0000    0.0000    0.0000 H   0  0  0  0  0  0  0  0  0  0  0  0
    0.0000    0.0000    0.0000 H   0  0  0  0  0  0  0  0  0  0  0  0
    0.0000    0.0000    0.0000 H   0  0  0  0  0  0  0  0  0  0  0  0
    0.0000    0.0000    0.0000 H   0  0  0  0  0  0  0  0  0  0  0  0
    0.0000    0.0000    0.0000 H   0  0  0  0  0  0  0  0  0  0  0  0
    0.0000    0.0000    0.0000 H   0  0  0  0  0  0  0  0  0  0  0  0
    0.0000    0.0000    0.0000 H   0  0  0  0  0  0  0  0  0  0  0  0
    0.0000    0.0000    0.0000 H   0  0  0  0  0  0  0  0  0  0  0  0
    0.0000    0.0000    0.0000 H   0  0  0  0  0  0  0  0  0  0  0  0
    0.0000    0.0000    0.0000 H   0  0  0  0  0  0  0  0  0  0  0  0
    0.0000    0.0000    0.0000 H   0  0  0  0  0  0  0  0  0  0  0  0
    0.0000    0.0000    0.0000 H   0  0  0  0  0  0  0  0  0  0  0  0
    0.0000    0.0000    0.0000 H   0  0  0  0  0  0  0  0  0  0  0  0
    0.0000    0.0000    0.0000 H   0  0  0  0  0  0  0  0  0  0  0  0
    0.0000    0.0000    0.0000 H   0  0  0  0  0  0  0  0  0  0  0  0
    0.0000    0.0000    0.0000 H   0  0  0  0  0  0  0  0  0  0  0  0
    0.0000    0.0000    0.0000 H   0  0  0  0  0  0  0  0  0  0  0  0
    0.0000    0.0000    0.0000 H   0  0  0  0  0  0  0  0  0  0  0  0
  1  2  1  0
  1  3  1  0
  1  5  2  0
  2  4  1  0
  2  6  2  0
  3  7  2  0
  3 12  1  0
  4  9  1  0
  5 10  1  0
  6 15  1  0
  7  8  1  0
  8 10  2  0
  8 16  1  0
  9 11  2  0
  9 17  1  0
 10 24  1  0
 11 14  1  0
 11 21  1  0
 12 15  2  0
 13 19  1  0
 13 29  1  0
 13 20  1  0
 14 18  2  0
 16 22  1  0
 17 23  2  0
 18 23  1  0
 18 25  1  0
 19 28  1  0
 20 27  1  0
 22 26  1  0
 24 30  1  0
 26 27  1  0
 26 28  1  0
  4 31  1  0
  5 32  1  0
  7 33  1  0
 14 34  1  0
 15 35  1  0
 17 36  1  0
 19 37  1  0
 19 38  1  0
 20 39  1  0
 20 40  1  0
 22 41  1  0
 22 42  1  0
 23 43  1  0
 26 44  1  0
 27 45  1  0
 27 46  1  0
 28 47  1  0
 28 48  1  0
 29 49  1  0
 29 50  1  0
 29 51  1  0
 30 52  1  0
 30 53  1  0
 30 54  1  0
M  END
>  <ALOGPS_LOGP>  (1) 
5.01

>  <ALOGPS_LOGS>  (1) 
-4.67

>  <ALOGPS_SOLUBILITY>  (1) 
1.02e-02 g/l

>  <DATABASE_ID>  (1) 
DB05294

>  <DATABASE_NAME>  (1) 
drugbank

>  <DRUGBANK_ID>  (1) 
DB05294

>  <DRUG_GROUPS>  (1) 
approved

>  <EXACT_MASS>  (1) 
474.106666884

>  <FORMULA>  (1) 
C22H24BrFN4O2

>  <GENERIC_NAME>  (1) 
Vandetanib

>  <INCHI_IDENTIFIER>  (1) 
InChI=1S/C22H24BrFN4O2/c1-28-7-5-14(6-8-28)12-30-21-11-19-16(10-20(21)29-2)22(26-13-25-19)27-18-4-3-15(23)9-17(18)24/h3-4,9-11,13-14H,5-8,12H2,1-2H3,(H,25,26,27)

>  <INCHI_KEY>  (1) 
UHTHHESEBZOYNR-UHFFFAOYSA-N

>  <INTERNATIONAL_BRANDS>  (1) 
Zactima ; Zictifa 

>  <JCHEM_ACCEPTOR_COUNT>  (1) 
6

>  <JCHEM_AVERAGE_POLARIZABILITY>  (1) 
47.10043522424327

>  <JCHEM_BIOAVAILABILITY>  (1) 
1

>  <JCHEM_DONOR_COUNT>  (1) 
1

>  <JCHEM_FORMAL_CHARGE>  (1) 
0

>  <JCHEM_GHOSE_FILTER>  (1) 
1

>  <JCHEM_IUPAC>  (1) 
N-(4-bromo-2-fluorophenyl)-6-methoxy-7-[(1-methylpiperidin-4-yl)methoxy]quinazolin-4-amine

>  <JCHEM_LOGP>  (1) 
4.542964749666666

>  <JCHEM_MDDR_LIKE_RULE>  (1) 
1

>  <JCHEM_NUMBER_OF_RINGS>  (1) 
4

>  <JCHEM_PHYSIOLOGICAL_CHARGE>  (1) 
1

>  <JCHEM_PKA_STRONGEST_ACIDIC>  (1) 
13.799445865197029

>  <JCHEM_PKA_STRONGEST_BASIC>  (1) 
9.12785103934611

>  <JCHEM_POLAR_SURFACE_AREA>  (1) 
59.510000000000005

>  <JCHEM_REFRACTIVITY>  (1) 
118.63489999999999

>  <JCHEM_ROTATABLE_BOND_COUNT>  (1) 
6

>  <JCHEM_RULE_OF_FIVE>  (1) 
1

>  <JCHEM_TRADITIONAL_IUPAC>  (1) 
vandetanib

>  <JCHEM_VEBER_RULE>  (1) 
0

>  <MOLECULAR_WEIGHT>  (1) 
475.354

>  <PRODUCTS>  (1) 
Caprelsa; Vandetanib

>  <SECONDARY_ACCESSION_NUMBERS>  (1) 
DB08764

>  <SMILES>  (1) 
COC1=C(OCC2CCN(C)CC2)C=C2N=CN=C(NC3=C(F)C=C(Br)C=C3)C2=C1

>  <SYNONYMS>  (1) 
N-(4-Bromo-2-fluorophenyl)-6-methoxy-7-((1-methyl-4-piperidinyl)methoxy)-4-quinazolinamine; N-(4-Bromo-2-fluorophenyl)-6-methoxy-7-((1-methylpiperidin-4-yl)methoxy)quinazolin-4-amine

$$$$
