
     RDKit          2D

 35 36  0  0  0  0  0  0  0  0999 V2000
    4.9232   -0.6075    0.0000 O   0  0  0  0  0  0  0  0  0  0  0  0
    3.0791    1.4232    0.0000 N   0  0  0  0  0  0  0  0  0  0  0  0
    3.8597    1.6746    0.0000 N   0  0  0  0  0  0  0  0  0  0  0  0
    3.8597    0.3468    0.0000 C   0  0  0  0  0  0  0  0  0  0  0  0
    5.1662    1.0106    0.0000 C   0  0  0  0  0  0  0  0  0  0  0  0
    4.3412    1.0106    0.0000 C   0  0  0  0  0  0  0  0  0  0  0  0
    3.0791    0.5981    0.0000 C   0  0  0  0  0  0  0  0  0  0  0  0
    3.5650   -1.0515    0.0000 C   0  0  0  0  0  0  0  0  0  0  0  0
    4.1159   -0.4374    0.0000 C   0  0  0  0  0  0  0  0  0  0  0  0
    5.5787    1.7252    0.0000 C   0  0  0  0  0  0  0  0  0  0  0  0
    5.5787    0.2962    0.0000 C   0  0  0  0  0  0  0  0  0  0  0  0
    2.3645    0.1856    0.0000 C   0  0  0  0  0  0  0  0  0  0  0  0
    3.8213   -1.8357    0.0000 C   0  0  0  0  0  0  0  0  0  0  0  0
    2.7577   -0.8814    0.0000 C   0  0  0  0  0  0  0  0  0  0  0  0
    2.3645    1.8357    0.0000 C   0  0  0  0  0  0  0  0  0  0  0  0
    1.6500    0.5981    0.0000 C   0  0  0  0  0  0  0  0  0  0  0  0
    1.6500    1.4232    0.0000 C   0  0  0  0  0  0  0  0  0  0  0  0
    0.0000    0.0000    0.0000 H   0  0  0  0  0  0  0  0  0  0  0  0
    0.0000    0.0000    0.0000 H   0  0  0  0  0  0  0  0  0  0  0  0
    0.0000    0.0000    0.0000 H   0  0  0  0  0  0  0  0  0  0  0  0
    0.0000    0.0000    0.0000 H   0  0  0  0  0  0  0  0  0  0  0  0
    0.0000    0.0000    0.0000 H   0  0  0  0  0  0  0  0  0  0  0  0
    0.0000    0.0000    0.0000 H   0  0  0  0  0  0  0  0  0  0  0  0
    0.0000    0.0000    0.0000 H   0  0  0  0  0  0  0  0  0  0  0  0
    0.0000    0.0000    0.0000 H   0  0  0  0  0  0  0  0  0  0  0  0
    0.0000    0.0000    0.0000 H   0  0  0  0  0  0  0  0  0  0  0  0
    0.0000    0.0000    0.0000 H   0  0  0  0  0  0  0  0  0  0  0  0
    0.0000    0.0000    0.0000 H   0  0  0  0  0  0  0  0  0  0  0  0
    0.0000    0.0000    0.0000 H   0  0  0  0  0  0  0  0  0  0  0  0
    0.0000    0.0000    0.0000 H   0  0  0  0  0  0  0  0  0  0  0  0
    0.0000    0.0000    0.0000 H   0  0  0  0  0  0  0  0  0  0  0  0
    0.0000    0.0000    0.0000 H   0  0  0  0  0  0  0  0  0  0  0  0
    0.0000    0.0000    0.0000 H   0  0  0  0  0  0  0  0  0  0  0  0
    0.0000    0.0000    0.0000 H   0  0  0  0  0  0  0  0  0  0  0  0
    0.0000    0.0000    0.0000 H   0  0  0  0  0  0  0  0  0  0  0  0
  1  9  2  0
  2  3  1  0
  2  7  1  0
  2 15  1  0
  3  6  2  0
  4  6  1  0
  4  7  2  0
  4  9  1  0
  5  6  1  0
  5 10  1  0
  5 11  1  0
  7 12  1  0
  8  9  1  0
  8 13  1  0
  8 14  1  0
 12 16  2  0
 15 17  2  0
 16 17  1  0
  5 18  1  0
  8 19  1  0
 10 20  1  0
 10 21  1  0
 10 22  1  0
 11 23  1  0
 11 24  1  0
 11 25  1  0
 12 26  1  0
 13 27  1  0
 13 28  1  0
 13 29  1  0
 14 30  1  0
 14 31  1  0
 14 32  1  0
 15 33  1  0
 16 34  1  0
 17 35  1  0
M  END
>  <ALOGPS_LOGP>  (1) 
3.36

>  <ALOGPS_LOGS>  (1) 
-3.11

>  <ALOGPS_SOLUBILITY>  (1) 
1.79e-01 g/l

>  <DATABASE_ID>  (1) 
DB05266

>  <DATABASE_NAME>  (1) 
drugbank

>  <DRUGBANK_ID>  (1) 
DB05266

>  <DRUG_GROUPS>  (1) 
approved; investigational

>  <EXACT_MASS>  (1) 
230.141913208

>  <FORMULA>  (1) 
C14H18N2O

>  <GENERIC_NAME>  (1) 
Ibudilast

>  <INCHI_IDENTIFIER>  (1) 
InChI=1S/C14H18N2O/c1-9(2)13-12(14(17)10(3)4)11-7-5-6-8-16(11)15-13/h5-10H,1-4H3

>  <INCHI_KEY>  (1) 
ZJVFLBOZORBYFE-UHFFFAOYSA-N

>  <INTERNATIONAL_BRANDS>  (1) 
Ke Tas; Ketas

>  <JCHEM_ACCEPTOR_COUNT>  (1) 
2

>  <JCHEM_AVERAGE_POLARIZABILITY>  (1) 
26.31048727736632

>  <JCHEM_BIOAVAILABILITY>  (1) 
1

>  <JCHEM_DONOR_COUNT>  (1) 
0

>  <JCHEM_FORMAL_CHARGE>  (1) 
0

>  <JCHEM_GHOSE_FILTER>  (1) 
1

>  <JCHEM_IUPAC>  (1) 
2-methyl-1-[2-(propan-2-yl)pyrazolo[1,5-a]pyridin-3-yl]propan-1-one

>  <JCHEM_LOGP>  (1) 
3.679244931333334

>  <JCHEM_MDDR_LIKE_RULE>  (1) 
0

>  <JCHEM_NUMBER_OF_RINGS>  (1) 
2

>  <JCHEM_PHYSIOLOGICAL_CHARGE>  (1) 
0

>  <JCHEM_PKA_STRONGEST_ACIDIC>  (1) 
16.124110910397867

>  <JCHEM_PKA_STRONGEST_BASIC>  (1) 
1.855180020373627

>  <JCHEM_POLAR_SURFACE_AREA>  (1) 
34.370000000000005

>  <JCHEM_REFRACTIVITY>  (1) 
79.375

>  <JCHEM_ROTATABLE_BOND_COUNT>  (1) 
3

>  <JCHEM_RULE_OF_FIVE>  (1) 
1

>  <JCHEM_TRADITIONAL_IUPAC>  (1) 
ibudilast

>  <JCHEM_VEBER_RULE>  (1) 
1

>  <MOLECULAR_WEIGHT>  (1) 
230.3055

>  <SECONDARY_ACCESSION_NUMBERS>  (1) 
DB05066

>  <SMILES>  (1) 
CC(C)C(=O)C1=C2C=CC=CN2N=C1C(C)C

>  <SYNONYMS>  (1) 
Ibudilastum

$$$$
