
     RDKit          2D

 33 34  0  0  0  0  0  0  0  0999 V2000
    1.0717   -1.8562    0.0000 C   0  0  0  0  0  0  0  0  0  0  0  0
    1.0717   -1.0312    0.0000 C   0  0  0  0  0  0  0  0  0  0  0  0
    1.7862   -0.6187    0.0000 C   0  0  0  0  0  0  0  0  0  0  0  0
    2.5006   -1.0312    0.0000 C   0  0  0  0  0  0  0  0  0  0  0  0
    2.5006   -1.8562    0.0000 C   0  0  0  0  0  0  0  0  0  0  0  0
    1.7862   -2.2687    0.0000 C   0  0  0  0  0  0  0  0  0  0  0  0
    3.2151   -0.6187    0.0000 C   0  0  0  0  0  0  0  0  0  0  0  0
    3.2151    0.2063    0.0000 O   0  0  0  0  0  0  0  0  0  0  0  0
    3.9296   -1.0312    0.0000 C   0  0  0  0  0  0  0  0  0  0  0  0
    4.6441   -0.6187    0.0000 C   0  0  0  0  0  0  0  0  0  0  0  0
    5.3585   -1.0312    0.0000 C   0  0  0  0  0  0  0  0  0  0  0  0
    5.3585   -1.8562    0.0000 C   0  0  0  0  0  0  0  0  0  0  0  0
    4.6441   -2.2687    0.0000 C   0  0  0  0  0  0  0  0  0  0  0  0
    3.9296   -1.8562    0.0000 C   0  0  0  0  0  0  0  0  0  0  0  0
    6.0730   -0.6187    0.0000 C   0  0  0  0  0  0  0  0  0  0  0  0
    6.7875   -1.0312    0.0000 C   0  0  0  0  0  0  0  0  0  0  0  0
    7.5019   -0.6187    0.0000 O   0  0  0  0  0  0  0  0  0  0  0  0
    6.7875   -1.8562    0.0000 N   0  0  0  0  0  0  0  0  0  0  0  0
    4.6441    0.2063    0.0000 N   0  0  0  0  0  0  0  0  0  0  0  0
    0.0000    0.0000    0.0000 H   0  0  0  0  0  0  0  0  0  0  0  0
    0.0000    0.0000    0.0000 H   0  0  0  0  0  0  0  0  0  0  0  0
    0.0000    0.0000    0.0000 H   0  0  0  0  0  0  0  0  0  0  0  0
    0.0000    0.0000    0.0000 H   0  0  0  0  0  0  0  0  0  0  0  0
    0.0000    0.0000    0.0000 H   0  0  0  0  0  0  0  0  0  0  0  0
    0.0000    0.0000    0.0000 H   0  0  0  0  0  0  0  0  0  0  0  0
    0.0000    0.0000    0.0000 H   0  0  0  0  0  0  0  0  0  0  0  0
    0.0000    0.0000    0.0000 H   0  0  0  0  0  0  0  0  0  0  0  0
    0.0000    0.0000    0.0000 H   0  0  0  0  0  0  0  0  0  0  0  0
    0.0000    0.0000    0.0000 H   0  0  0  0  0  0  0  0  0  0  0  0
    0.0000    0.0000    0.0000 H   0  0  0  0  0  0  0  0  0  0  0  0
    0.0000    0.0000    0.0000 H   0  0  0  0  0  0  0  0  0  0  0  0
    0.0000    0.0000    0.0000 H   0  0  0  0  0  0  0  0  0  0  0  0
    0.0000    0.0000    0.0000 H   0  0  0  0  0  0  0  0  0  0  0  0
  1  2  2  0
  2  3  1  0
  3  4  2  0
  4  5  1  0
  5  6  2  0
  1  6  1  0
  4  7  1  0
  7  8  2  0
  7  9  1  0
  9 10  2  0
 10 11  1  0
 11 12  2  0
 12 13  1  0
 13 14  2  0
  9 14  1  0
 11 15  1  0
 15 16  1  0
 16 17  2  0
 16 18  1  0
 10 19  1  0
  1 20  1  0
  2 21  1  0
  3 22  1  0
  5 23  1  0
  6 24  1  0
 12 25  1  0
 13 26  1  0
 14 27  1  0
 15 28  1  0
 15 29  1  0
 18 30  1  0
 18 31  1  0
 19 32  1  0
 19 33  1  0
M  END
>  <ALOGPS_LOGP>  (1) 
1.53

>  <ALOGPS_LOGS>  (1) 
-4.11

>  <ALOGPS_SOLUBILITY>  (1) 
1.97e-02 g/l

>  <DATABASE_ID>  (1) 
DB06802

>  <DATABASE_NAME>  (1) 
drugbank

>  <DRUGBANK_ID>  (1) 
DB06802

>  <DRUG_GROUPS>  (1) 
approved

>  <EXACT_MASS>  (1) 
254.105527702

>  <FORMULA>  (1) 
C15H14N2O2

>  <GENERIC_NAME>  (1) 
Nepafenac

>  <INCHI_IDENTIFIER>  (1) 
InChI=1S/C15H14N2O2/c16-13(18)9-11-7-4-8-12(14(11)17)15(19)10-5-2-1-3-6-10/h1-8H,9,17H2,(H2,16,18)

>  <INCHI_KEY>  (1) 
QEFAQIPZVLVERP-UHFFFAOYSA-N

>  <JCHEM_ACCEPTOR_COUNT>  (1) 
3

>  <JCHEM_AVERAGE_POLARIZABILITY>  (1) 
26.633807732217292

>  <JCHEM_BIOAVAILABILITY>  (1) 
1

>  <JCHEM_DONOR_COUNT>  (1) 
2

>  <JCHEM_FORMAL_CHARGE>  (1) 
0

>  <JCHEM_GHOSE_FILTER>  (1) 
1

>  <JCHEM_IUPAC>  (1) 
2-(2-amino-3-benzoylphenyl)acetamide

>  <JCHEM_LOGP>  (1) 
2.0844785749999994

>  <JCHEM_MDDR_LIKE_RULE>  (1) 
0

>  <JCHEM_NUMBER_OF_RINGS>  (1) 
2

>  <JCHEM_PHYSIOLOGICAL_CHARGE>  (1) 
0

>  <JCHEM_PKA>  (1) 
19.434407793812813

>  <JCHEM_PKA_STRONGEST_ACIDIC>  (1) 
15.818239466611313

>  <JCHEM_PKA_STRONGEST_BASIC>  (1) 
1.8317096563071513

>  <JCHEM_POLAR_SURFACE_AREA>  (1) 
86.17999999999999

>  <JCHEM_REFRACTIVITY>  (1) 
74.4637

>  <JCHEM_ROTATABLE_BOND_COUNT>  (1) 
4

>  <JCHEM_RULE_OF_FIVE>  (1) 
1

>  <JCHEM_TRADITIONAL_IUPAC>  (1) 
nepafenac

>  <JCHEM_VEBER_RULE>  (1) 
0

>  <MOLECULAR_WEIGHT>  (1) 
254.2839

>  <PRODUCTS>  (1) 
Ilevro; Nevanac

>  <SMILES>  (1) 
NC(=O)CC1=CC=CC(C(=O)C2=CC=CC=C2)=C1N

$$$$
