
     RDKit          2D

 52 54  0  0  0  0  0  0  0  0999 V2000
   -2.4956   -1.4643    0.0000 C   0  0  0  0  0  0  0  0  0  0  0  0
   -2.4956   -2.2893    0.0000 C   0  0  0  0  0  0  0  0  0  0  0  0
   -1.7531   -2.7018    0.0000 C   0  0  0  0  0  0  0  0  0  0  0  0
   -1.0518   -2.2893    0.0000 C   0  0  0  0  0  0  0  0  0  0  0  0
   -1.0518   -1.4643    0.0000 C   0  0  0  0  0  0  0  0  0  0  0  0
   -1.7531   -1.0518    0.0000 C   0  0  0  0  0  0  0  0  0  0  0  0
    0.3918   -2.2893    0.0000 C   0  0  0  0  0  0  0  0  0  0  0  0
    0.3918   -1.4643    0.0000 C   0  0  0  0  0  0  0  0  0  0  0  0
   -0.3506   -1.0518    0.0000 C   0  0  0  0  0  0  0  0  0  0  0  0
    1.0931   -2.7018    0.0000 C   0  0  0  0  0  0  0  0  0  0  0  0
    1.7943   -2.2893    0.0000 C   0  0  0  0  0  0  0  0  0  0  0  0
    1.7943   -1.4643    0.0000 C   0  0  0  0  0  0  0  0  0  0  0  0
    1.0931   -1.0518    0.0000 C   0  0  0  0  0  0  0  0  0  0  0  0
   -0.3506   -0.2268    0.0000 N   0  0  0  0  0  0  0  0  0  0  0  0
    0.3918    0.1856    0.0000 C   0  0  0  0  0  0  0  0  0  0  0  0
    0.3918    1.0106    0.0000 C   0  0  0  0  0  0  0  0  0  0  0  0
   -0.3506    1.4643    0.0000 N   0  0  0  0  0  0  0  0  0  0  0  0
   -1.0518    1.0106    0.0000 C   0  0  0  0  0  0  0  0  0  0  0  0
   -1.0518    0.1856    0.0000 C   0  0  0  0  0  0  0  0  0  0  0  0
   -3.1968   -2.7018    0.0000 Cl  0  0  0  0  0  0  0  0  0  0  0  0
   -0.3506    2.2893    0.0000 C   0  0  0  0  0  0  0  0  0  0  0  0
    0.3918    2.7018    0.0000 C   0  0  0  0  0  0  0  0  0  0  0  0
    1.0931    2.2893    0.0000 O   0  0  0  0  0  0  0  0  0  0  0  0
    1.7943    2.6606    0.0000 C   0  0  0  0  0  0  0  0  0  0  0  0
    2.4956    2.2893    0.0000 C   0  0  0  0  0  0  0  0  0  0  0  0
    3.1968    2.6606    0.0000 O   0  0  0  0  0  0  0  0  0  0  0  0
    2.4956    1.4231    0.0000 O   0  0  0  0  0  0  0  0  0  0  0  0
    0.0000    0.0000    0.0000 H   0  0  0  0  0  0  0  0  0  0  0  0
    0.0000    0.0000    0.0000 H   0  0  0  0  0  0  0  0  0  0  0  0
    0.0000    0.0000    0.0000 H   0  0  0  0  0  0  0  0  0  0  0  0
    0.0000    0.0000    0.0000 H   0  0  0  0  0  0  0  0  0  0  0  0
    0.0000    0.0000    0.0000 H   0  0  0  0  0  0  0  0  0  0  0  0
    0.0000    0.0000    0.0000 H   0  0  0  0  0  0  0  0  0  0  0  0
    0.0000    0.0000    0.0000 H   0  0  0  0  0  0  0  0  0  0  0  0
    0.0000    0.0000    0.0000 H   0  0  0  0  0  0  0  0  0  0  0  0
    0.0000    0.0000    0.0000 H   0  0  0  0  0  0  0  0  0  0  0  0
    0.0000    0.0000    0.0000 H   0  0  0  0  0  0  0  0  0  0  0  0
    0.0000    0.0000    0.0000 H   0  0  0  0  0  0  0  0  0  0  0  0
    0.0000    0.0000    0.0000 H   0  0  0  0  0  0  0  0  0  0  0  0
    0.0000    0.0000    0.0000 H   0  0  0  0  0  0  0  0  0  0  0  0
    0.0000    0.0000    0.0000 H   0  0  0  0  0  0  0  0  0  0  0  0
    0.0000    0.0000    0.0000 H   0  0  0  0  0  0  0  0  0  0  0  0
    0.0000    0.0000    0.0000 H   0  0  0  0  0  0  0  0  0  0  0  0
    0.0000    0.0000    0.0000 H   0  0  0  0  0  0  0  0  0  0  0  0
    0.0000    0.0000    0.0000 H   0  0  0  0  0  0  0  0  0  0  0  0
    0.0000    0.0000    0.0000 H   0  0  0  0  0  0  0  0  0  0  0  0
    0.0000    0.0000    0.0000 H   0  0  0  0  0  0  0  0  0  0  0  0
    0.0000    0.0000    0.0000 H   0  0  0  0  0  0  0  0  0  0  0  0
    0.0000    0.0000    0.0000 H   0  0  0  0  0  0  0  0  0  0  0  0
    0.0000    0.0000    0.0000 H   0  0  0  0  0  0  0  0  0  0  0  0
    0.0000    0.0000    0.0000 H   0  0  0  0  0  0  0  0  0  0  0  0
    0.0000    0.0000    0.0000 H   0  0  0  0  0  0  0  0  0  0  0  0
  1  2  2  0
  2  3  1  0
  3  4  2  0
  4  5  1  0
  5  6  2  0
  1  6  1  0
  7  8  2  0
  9  8  1  6
  5  9  1  0
  7 10  1  0
 10 11  2  0
 11 12  1  0
 12 13  2  0
  8 13  1  0
  9 14  1  0
 14 15  1  0
 15 16  1  0
 16 17  1  0
 17 18  1  0
 18 19  1  0
 14 19  1  0
  2 20  1  0
 17 21  1  0
 21 22  1  0
 22 23  1  0
 23 24  1  0
 24 25  1  0
 25 26  1  0
 25 27  2  0
  1 28  1  0
  3 29  1  0
  4 30  1  0
  6 31  1  0
  7 32  1  0
  9 33  1  0
 10 34  1  0
 11 35  1  0
 12 36  1  0
 13 37  1  0
 15 38  1  0
 15 39  1  0
 16 40  1  0
 16 41  1  0
 18 42  1  0
 18 43  1  0
 19 44  1  0
 19 45  1  0
 21 46  1  0
 21 47  1  0
 22 48  1  0
 22 49  1  0
 24 50  1  0
 24 51  1  0
 26 52  1  0
M  END
>  <ALOGPS_LOGP>  (1) 
2.98

>  <ALOGPS_LOGS>  (1) 
-3.77

>  <ALOGPS_SOLUBILITY>  (1) 
6.58e-02 g/l

>  <DATABASE_ID>  (1) 
DB06282

>  <DATABASE_NAME>  (1) 
drugbank

>  <DRUGBANK_ID>  (1) 
DB06282

>  <DRUG_GROUPS>  (1) 
approved

>  <EXACT_MASS>  (1) 
388.1553704

>  <FORMULA>  (1) 
C21H25ClN2O3

>  <GENERIC_NAME>  (1) 
Levocetirizine

>  <INCHI_IDENTIFIER>  (1) 
InChI=1S/C21H25ClN2O3/c22-19-8-6-18(7-9-19)21(17-4-2-1-3-5-17)24-12-10-23(11-13-24)14-15-27-16-20(25)26/h1-9,21H,10-16H2,(H,25,26)/t21-/m1/s1

>  <INCHI_KEY>  (1) 
ZKLPARSLTMPFCP-OAQYLSRUSA-N

>  <JCHEM_ACCEPTOR_COUNT>  (1) 
5

>  <JCHEM_ATOM_COUNT>  (1) 
52

>  <JCHEM_AVERAGE_POLARIZABILITY>  (1) 
41.67204415051604

>  <JCHEM_BIOAVAILABILITY>  (1) 
1

>  <JCHEM_DONOR_COUNT>  (1) 
1

>  <JCHEM_FORMAL_CHARGE>  (1) 
0

>  <JCHEM_GHOSE_FILTER>  (1) 
1

>  <JCHEM_IUPAC>  (1) 
2-(2-{4-[(R)-(4-chlorophenyl)(phenyl)methyl]piperazin-1-yl}ethoxy)acetic acid

>  <JCHEM_LOGP>  (1) 
0.861282401362457

>  <JCHEM_MDDR_LIKE_RULE>  (1) 
1

>  <JCHEM_NUMBER_OF_RINGS>  (1) 
3

>  <JCHEM_PHYSIOLOGICAL_CHARGE>  (1) 
0

>  <JCHEM_PKA_STRONGEST_ACIDIC>  (1) 
3.577292485328521

>  <JCHEM_PKA_STRONGEST_BASIC>  (1) 
7.735498562838359

>  <JCHEM_POLAR_SURFACE_AREA>  (1) 
53.01

>  <JCHEM_REFRACTIVITY>  (1) 
106.86649999999997

>  <JCHEM_ROTATABLE_BOND_COUNT>  (1) 
8

>  <JCHEM_RULE_OF_FIVE>  (1) 
1

>  <JCHEM_TRADITIONAL_IUPAC>  (1) 
(-)-cetirizine

>  <JCHEM_VEBER_RULE>  (1) 
0

>  <MOLECULAR_WEIGHT>  (1) 
388.89

>  <PRODUCTS>  (1) 
Childrens Xyzal Allergy; Levocetirizine Dihydrochloride; Levocetirizine dihydrochloride; Xyzal; Xyzal Allergy 24HR

>  <SALTS>  (1) 
Levocetirizine dihydrochloride

>  <SMILES>  (1) 
OC(=O)COCCN1CCN(CC1)[C@H](C1=CC=CC=C1)C1=CC=C(Cl)C=C1

>  <SYNONYMS>  (1) 
2-(2-{4-[(R)-(4-chlorophenyl)(phenyl)methyl]piperazin-1-yl}ethoxy)acetic acid

$$$$
