
     RDKit          2D

 26 26  0  0  0  0  0  0  0  0999 V2000
   -1.7895    0.0000    0.0000 C   0  0  0  0  0  0  0  0  0  0  0  0
   -1.7895   -0.8250    0.0000 C   0  0  0  0  0  0  0  0  0  0  0  0
   -1.0470   -1.2374    0.0000 C   0  0  0  0  0  0  0  0  0  0  0  0
   -0.3458   -0.8250    0.0000 C   0  0  0  0  0  0  0  0  0  0  0  0
   -0.3458    0.0000    0.0000 C   0  0  0  0  0  0  0  0  0  0  0  0
   -1.0470    0.4125    0.0000 C   0  0  0  0  0  0  0  0  0  0  0  0
   -2.4908   -1.2374    0.0000 O   0  0  0  0  0  0  0  0  0  0  0  0
    0.3554    0.4125    0.0000 C   0  0  0  0  0  0  0  0  0  0  0  0
    1.0567    0.0000    0.0000 C   0  0  0  0  0  0  0  0  0  0  0  0
    1.7991    0.4125    0.0000 C   0  0  0  0  0  0  0  0  0  0  0  0
    2.5004    0.0000    0.0000 O   0  0  0  0  0  0  0  0  0  0  0  0
    1.7991    1.2374    0.0000 O   0  0  0  0  0  0  0  0  0  0  0  0
    0.3554    1.2374    0.0000 O   0  0  0  0  0  0  0  0  0  0  0  0
    1.0567   -0.8250    0.0000 N   0  0  0  0  0  0  0  0  0  0  0  0
   -2.5005    0.4184    0.0000 O   0  0  0  0  0  0  0  0  0  0  0  0
    0.0000    0.0000    0.0000 H   0  0  0  0  0  0  0  0  0  0  0  0
    0.0000    0.0000    0.0000 H   0  0  0  0  0  0  0  0  0  0  0  0
    0.0000    0.0000    0.0000 H   0  0  0  0  0  0  0  0  0  0  0  0
    0.0000    0.0000    0.0000 H   0  0  0  0  0  0  0  0  0  0  0  0
    0.0000    0.0000    0.0000 H   0  0  0  0  0  0  0  0  0  0  0  0
    0.0000    0.0000    0.0000 H   0  0  0  0  0  0  0  0  0  0  0  0
    0.0000    0.0000    0.0000 H   0  0  0  0  0  0  0  0  0  0  0  0
    0.0000    0.0000    0.0000 H   0  0  0  0  0  0  0  0  0  0  0  0
    0.0000    0.0000    0.0000 H   0  0  0  0  0  0  0  0  0  0  0  0
    0.0000    0.0000    0.0000 H   0  0  0  0  0  0  0  0  0  0  0  0
    0.0000    0.0000    0.0000 H   0  0  0  0  0  0  0  0  0  0  0  0
  1  2  2  0
  2  3  1  0
  8  5  1  1
  3  4  2  0
  8  9  1  0
  4  5  1  0
  9 10  1  6
  5  6  2  0
 10 11  1  0
  6  1  1  0
 10 12  2  0
  8 13  1  0
  2  7  1  0
  9 14  1  0
  1 15  1  0
  3 16  1  0
  4 17  1  0
  6 18  1  0
  7 19  1  0
  8 20  1  0
  9 21  1  0
 11 22  1  0
 13 23  1  0
 14 24  1  0
 14 25  1  0
 15 26  1  0
M  END
>  <ALOGPS_LOGP>  (1) 
-2.37

>  <ALOGPS_LOGS>  (1) 
-1.14

>  <ALOGPS_SOLUBILITY>  (1) 
1.53e+01 g/l

>  <DATABASE_ID>  (1) 
DB06262

>  <DATABASE_NAME>  (1) 
drugbank

>  <DRUGBANK_ID>  (1) 
DB06262

>  <DRUG_GROUPS>  (1) 
approved; investigational

>  <EXACT_MASS>  (1) 
213.063722458

>  <FORMULA>  (1) 
C9H11NO5

>  <GENERIC_NAME>  (1) 
Droxidopa

>  <INCHI_IDENTIFIER>  (1) 
InChI=1S/C9H11NO5/c10-7(9(14)15)8(13)4-1-2-5(11)6(12)3-4/h1-3,7-8,11-13H,10H2,(H,14,15)/t7-,8+/m0/s1

>  <INCHI_KEY>  (1) 
QXWYKJLNLSIPIN-JGVFFNPUSA-N

>  <INTERNATIONAL_BRANDS>  (1) 
Dops

>  <JCHEM_ACCEPTOR_COUNT>  (1) 
6

>  <JCHEM_ATOM_COUNT>  (1) 
26

>  <JCHEM_AVERAGE_POLARIZABILITY>  (1) 
19.847685091810238

>  <JCHEM_BIOAVAILABILITY>  (1) 
1

>  <JCHEM_DONOR_COUNT>  (1) 
5

>  <JCHEM_FORMAL_CHARGE>  (1) 
0

>  <JCHEM_GHOSE_FILTER>  (1) 
0

>  <JCHEM_IUPAC>  (1) 
(2S,3R)-2-amino-3-(3,4-dihydroxyphenyl)-3-hydroxypropanoic acid

>  <JCHEM_LOGP>  (1) 
-2.7110136124904325

>  <JCHEM_MDDR_LIKE_RULE>  (1) 
0

>  <JCHEM_NUMBER_OF_RINGS>  (1) 
1

>  <JCHEM_PHYSIOLOGICAL_CHARGE>  (1) 
0

>  <JCHEM_PKA>  (1) 
9.384501138977436

>  <JCHEM_PKA_STRONGEST_ACIDIC>  (1) 
1.4644187863117786

>  <JCHEM_PKA_STRONGEST_BASIC>  (1) 
8.715370201253013

>  <JCHEM_POLAR_SURFACE_AREA>  (1) 
124.01

>  <JCHEM_REFRACTIVITY>  (1) 
50.285599999999995

>  <JCHEM_ROTATABLE_BOND_COUNT>  (1) 
3

>  <JCHEM_RULE_OF_FIVE>  (1) 
1

>  <JCHEM_TRADITIONAL_IUPAC>  (1) 
(2S,3R)-2-amino-3-(3,4-dihydroxyphenyl)-3-hydroxypropanoic acid

>  <JCHEM_VEBER_RULE>  (1) 
0

>  <MOLECULAR_WEIGHT>  (1) 
213.189

>  <PRODUCTS>  (1) 
Northera

>  <SMILES>  (1) 
N[C@@H]([C@H](O)C1=CC(O)=C(O)C=C1)C(O)=O

>  <SYNONYMS>  (1) 
DOPS; L-Dihydroxyphenylserine; L-DOPS; L-threo-dihydroxyphenylserine

$$$$
