
     RDKit          2D

 47 50  0  0  1  0  0  0  0  0999 V2000
   16.4957  -10.5233    0.0000 C   0  0  0  0  0  0  0  0  0  0  0  0
   15.7811  -10.9341    0.0000 C   0  0  0  0  0  0  0  0  0  0  0  0
   17.2171  -10.9410    0.0000 C   0  0  0  0  0  0  0  0  0  0  0  0
   16.4992   -9.7017    0.0000 C   0  0  0  0  0  0  0  0  0  0  0  0
   15.5532  -10.4473    0.0000 O   0  0  0  0  0  0  0  0  0  0  0  0
   15.0078  -10.6303    0.0000 O   0  0  0  0  0  0  0  0  0  0  0  0
   15.7846  -11.7695    0.0000 O   0  0  0  0  0  0  0  0  0  0  0  0
   17.2171  -11.7695    0.0000 C   0  0  0  0  0  0  0  0  0  0  0  0
   17.9282  -10.5267    0.0000 C   0  0  0  0  0  0  0  0  0  0  0  0
   17.2171   -9.2874    0.0000 C   0  0  0  0  0  0  0  0  0  0  0  0
   16.0573   -9.0942    0.0000 C   0  0  0  0  0  0  0  0  0  0  0  0
   15.5567   -9.6223    0.0000 O   0  0  0  0  0  0  0  0  0  0  0  0
   14.7627   -9.8397    0.0000 C   0  0  0  0  0  0  0  0  0  0  0  0
   16.4992  -12.1837    0.0000 C   0  0  0  0  0  0  0  0  0  0  0  0
   17.9317  -12.1803    0.0000 C   0  0  0  0  0  0  0  0  0  0  0  0
   17.9282   -9.7017    0.0000 C   0  0  0  0  0  0  0  0  0  0  0  0
   17.2171   -8.4625    0.0000 C   0  0  0  0  0  0  0  0  0  0  0  0
   15.2288   -9.0769    0.0000 C   0  0  0  0  0  0  0  0  0  0  0  0
   13.9446   -9.8397    0.0000 C   0  0  0  0  0  0  0  0  0  0  0  0
   16.5026  -13.0087    0.0000 O   0  0  0  0  0  0  0  0  0  0  0  0
   15.7806  -13.4294    0.0000 C   0  0  0  0  0  0  0  0  0  0  0  0
    0.0000    0.0000    0.0000 H   0  0  0  0  0  0  0  0  0  0  0  0
    0.0000    0.0000    0.0000 H   0  0  0  0  0  0  0  0  0  0  0  0
    0.0000    0.0000    0.0000 H   0  0  0  0  0  0  0  0  0  0  0  0
    0.0000    0.0000    0.0000 H   0  0  0  0  0  0  0  0  0  0  0  0
    0.0000    0.0000    0.0000 H   0  0  0  0  0  0  0  0  0  0  0  0
    0.0000    0.0000    0.0000 H   0  0  0  0  0  0  0  0  0  0  0  0
    0.0000    0.0000    0.0000 H   0  0  0  0  0  0  0  0  0  0  0  0
    0.0000    0.0000    0.0000 H   0  0  0  0  0  0  0  0  0  0  0  0
    0.0000    0.0000    0.0000 H   0  0  0  0  0  0  0  0  0  0  0  0
    0.0000    0.0000    0.0000 H   0  0  0  0  0  0  0  0  0  0  0  0
    0.0000    0.0000    0.0000 H   0  0  0  0  0  0  0  0  0  0  0  0
    0.0000    0.0000    0.0000 H   0  0  0  0  0  0  0  0  0  0  0  0
    0.0000    0.0000    0.0000 H   0  0  0  0  0  0  0  0  0  0  0  0
    0.0000    0.0000    0.0000 H   0  0  0  0  0  0  0  0  0  0  0  0
    0.0000    0.0000    0.0000 H   0  0  0  0  0  0  0  0  0  0  0  0
    0.0000    0.0000    0.0000 H   0  0  0  0  0  0  0  0  0  0  0  0
    0.0000    0.0000    0.0000 H   0  0  0  0  0  0  0  0  0  0  0  0
    0.0000    0.0000    0.0000 H   0  0  0  0  0  0  0  0  0  0  0  0
    0.0000    0.0000    0.0000 H   0  0  0  0  0  0  0  0  0  0  0  0
    0.0000    0.0000    0.0000 H   0  0  0  0  0  0  0  0  0  0  0  0
    0.0000    0.0000    0.0000 H   0  0  0  0  0  0  0  0  0  0  0  0
    0.0000    0.0000    0.0000 H   0  0  0  0  0  0  0  0  0  0  0  0
    0.0000    0.0000    0.0000 H   0  0  0  0  0  0  0  0  0  0  0  0
    0.0000    0.0000    0.0000 H   0  0  0  0  0  0  0  0  0  0  0  0
    0.0000    0.0000    0.0000 H   0  0  0  0  0  0  0  0  0  0  0  0
    0.0000    0.0000    0.0000 H   0  0  0  0  0  0  0  0  0  0  0  0
  1  2  1  0
  1  3  1  0
  1  4  1  0
  1  5  1  6
  2  6  1  0
  2  7  1  0
  3  8  1  0
  3  9  1  0
  4 10  1  0
  4 11  1  0
  5 12  1  0
  6 13  1  0
  7 14  1  0
  8 15  1  6
  9 16  1  0
 10 17  1  6
 11 18  1  0
 13 19  1  6
 14 20  1  6
  8 14  1  0
 10 16  1  0
 13 12  1  0
 13 18  1  0
 20 21  1  0
  2 22  1  1
  3 23  1  6
  4 24  1  6
  8 25  1  0
  9 26  1  0
  9 27  1  0
 10 28  1  0
 11 29  1  0
 11 30  1  0
 14 31  1  0
 15 32  1  0
 15 33  1  0
 15 34  1  0
 16 35  1  0
 16 36  1  0
 17 37  1  0
 17 38  1  0
 17 39  1  0
 18 40  1  0
 18 41  1  0
 19 42  1  0
 19 43  1  0
 19 44  1  0
 21 45  1  0
 21 46  1  0
 21 47  1  0
M  END
>  <ALOGPS_LOGP>  (1) 
3.02

>  <ALOGPS_LOGS>  (1) 
-2.81

>  <ALOGPS_SOLUBILITY>  (1) 
4.57e-01 g/l

>  <DATABASE_ID>  (1) 
DB06697

>  <DATABASE_NAME>  (1) 
drugbank

>  <DRUGBANK_ID>  (1) 
DB06697

>  <DRUG_GROUPS>  (1) 
approved

>  <EXACT_MASS>  (1) 
298.178023942

>  <FORMULA>  (1) 
C16H26O5

>  <GENERIC_NAME>  (1) 
Artemether

>  <INCHI_IDENTIFIER>  (1) 
InChI=1S/C16H26O5/c1-9-5-6-12-10(2)13(17-4)18-14-16(12)11(9)7-8-15(3,19-14)20-21-16/h9-14H,5-8H2,1-4H3/t9-,10-,11+,12+,13+,14-,15-,16-/m1/s1

>  <INCHI_KEY>  (1) 
SXYIRMFQILZOAM-HVNFFKDJSA-N

>  <JCHEM_ACCEPTOR_COUNT>  (1) 
5

>  <JCHEM_AVERAGE_POLARIZABILITY>  (1) 
32.1172589393334

>  <JCHEM_BIOAVAILABILITY>  (1) 
1

>  <JCHEM_DONOR_COUNT>  (1) 
0

>  <JCHEM_FORMAL_CHARGE>  (1) 
0

>  <JCHEM_GHOSE_FILTER>  (1) 
1

>  <JCHEM_IUPAC>  (1) 
(1R,4S,5R,8S,9R,10S,12R,13R)-10-methoxy-1,5,9-trimethyl-11,14,15,16-tetraoxatetracyclo[10.3.1.0⁴,¹³.0⁸,¹³]hexadecane

>  <JCHEM_LOGP>  (1) 
3.481392020333333

>  <JCHEM_MDDR_LIKE_RULE>  (1) 
0

>  <JCHEM_NUMBER_OF_RINGS>  (1) 
4

>  <JCHEM_PHYSIOLOGICAL_CHARGE>  (1) 
0

>  <JCHEM_PKA_STRONGEST_BASIC>  (1) 
-3.9321047193755327

>  <JCHEM_POLAR_SURFACE_AREA>  (1) 
46.150000000000006

>  <JCHEM_REFRACTIVITY>  (1) 
74.66050000000001

>  <JCHEM_ROTATABLE_BOND_COUNT>  (1) 
1

>  <JCHEM_RULE_OF_FIVE>  (1) 
1

>  <JCHEM_TRADITIONAL_IUPAC>  (1) 
artemether

>  <JCHEM_VEBER_RULE>  (1) 
0

>  <MOLECULAR_WEIGHT>  (1) 
298.3746

>  <PRODUCTS>  (1) 
Coartem

>  <SMILES>  (1) 
[H][C@@]12CC[C@@H](C)[C@]3([H])CC[C@@]4(C)OO[C@@]13[C@]([H])(O[C@H](OC)[C@@H]2C)O4

>  <SYNONYMS>  (1) 
Dihydroartemisinin methyl ether; Dihydroqinghaosu methyl ether; SM-224

$$$$
