 
     RDKit          2D

 63 67  0  0  1  0  0  0  0  0999 V2000
   20.9613  -28.7386    0.0000 C   0  0  0  0  0  0  0  0  0  0  0  0
   20.9613  -29.5636    0.0000 C   0  0  0  0  0  0  0  0  0  0  0  0
   21.6626  -29.9761    0.0000 C   0  0  0  0  0  0  0  0  0  0  0  0
   22.3638  -29.5636    0.0000 C   0  0  0  0  0  0  0  0  0  0  0  0
   22.3638  -28.7386    0.0000 C   0  0  0  0  0  0  0  0  0  0  0  0
   21.6626  -28.3673    0.0000 C   0  0  0  0  0  0  0  0  0  0  0  0
   23.0651  -29.9761    0.0000 C   0  0  0  0  0  0  0  0  0  0  0  0
   23.8076  -29.5636    0.0000 C   0  0  0  0  0  0  0  0  0  0  0  0
   23.8076  -28.7386    0.0000 C   0  0  0  0  0  0  0  0  0  0  0  0
   23.0651  -28.3673    0.0000 C   0  0  0  0  0  0  0  0  0  0  0  0
   24.5088  -28.3673    0.0000 C   0  0  0  0  0  0  0  0  0  0  0  0
   24.5088  -27.5423    0.0000 C   0  0  0  0  0  0  0  0  0  0  0  0
   23.8076  -27.1298    0.0000 C   0  0  0  0  0  0  0  0  0  0  0  0
   23.0651  -27.5423    0.0000 C   0  0  0  0  0  0  0  0  0  0  0  0
   22.3638  -27.9548    0.0000 C   0  0  0  0  0  0  0  0  0  0  0  0
   22.3638  -27.1298    0.0000 O   0  0  0  0  0  0  0  0  0  0  0  0
   24.5088  -26.7173    0.0000 C   0  0  0  0  0  0  0  0  0  0  0  0
   23.0651  -29.1511    0.0000 F   0  0  0  0  0  0  0  0  0  0  0  0
   20.2601  -29.9761    0.0000 O   0  0  0  0  0  0  0  0  0  0  0  0
   25.9378  -28.3673    0.0000 C   0  0  0  0  0  0  0  0  0  0  0  0
   25.9378  -27.5423    0.0000 C   0  0  0  0  0  0  0  0  0  0  0  0
   25.2233  -27.1298    0.0000 C   0  0  0  0  0  0  0  0  0  0  0  0
   25.2233  -26.2225    0.0000 C   0  0  0  0  0  0  0  0  0  0  0  0
   24.4989  -25.8041    0.0000 C   0  0  0  0  0  0  0  0  0  0  0  0
   25.9278  -25.8156    0.0000 O   0  0  0  0  0  0  0  0  0  0  0  0
   23.7894  -26.2137    0.0000 Cl  0  0  0  0  0  0  0  0  0  0  0  0
   25.9277  -26.7230    0.0000 O   0  0  0  0  0  0  0  0  0  0  0  0
   26.7189  -27.2367    0.0000 O   0  0  0  0  0  0  0  0  0  0  0  0
   26.7527  -26.7230    0.0000 C   0  0  0  0  0  0  0  0  0  0  0  0
   26.7527  -25.8980    0.0000 C   0  0  0  0  0  0  0  0  0  0  0  0
   27.5777  -26.7230    0.0000 C   0  0  0  0  0  0  0  0  0  0  0  0
    0.0000    0.0000    0.0000 H   0  0  0  0  0  0  0  0  0  0  0  0
    0.0000    0.0000    0.0000 H   0  0  0  0  0  0  0  0  0  0  0  0
    0.0000    0.0000    0.0000 H   0  0  0  0  0  0  0  0  0  0  0  0
    0.0000    0.0000    0.0000 H   0  0  0  0  0  0  0  0  0  0  0  0
    0.0000    0.0000    0.0000 H   0  0  0  0  0  0  0  0  0  0  0  0
    0.0000    0.0000    0.0000 H   0  0  0  0  0  0  0  0  0  0  0  0
    0.0000    0.0000    0.0000 H   0  0  0  0  0  0  0  0  0  0  0  0
    0.0000    0.0000    0.0000 H   0  0  0  0  0  0  0  0  0  0  0  0
    0.0000    0.0000    0.0000 H   0  0  0  0  0  0  0  0  0  0  0  0
    0.0000    0.0000    0.0000 H   0  0  0  0  0  0  0  0  0  0  0  0
    0.0000    0.0000    0.0000 H   0  0  0  0  0  0  0  0  0  0  0  0
    0.0000    0.0000    0.0000 H   0  0  0  0  0  0  0  0  0  0  0  0
    0.0000    0.0000    0.0000 H   0  0  0  0  0  0  0  0  0  0  0  0
    0.0000    0.0000    0.0000 H   0  0  0  0  0  0  0  0  0  0  0  0
    0.0000    0.0000    0.0000 H   0  0  0  0  0  0  0  0  0  0  0  0
    0.0000    0.0000    0.0000 H   0  0  0  0  0  0  0  0  0  0  0  0
    0.0000    0.0000    0.0000 H   0  0  0  0  0  0  0  0  0  0  0  0
    0.0000    0.0000    0.0000 H   0  0  0  0  0  0  0  0  0  0  0  0
    0.0000    0.0000    0.0000 H   0  0  0  0  0  0  0  0  0  0  0  0
    0.0000    0.0000    0.0000 H   0  0  0  0  0  0  0  0  0  0  0  0
    0.0000    0.0000    0.0000 H   0  0  0  0  0  0  0  0  0  0  0  0
    0.0000    0.0000    0.0000 H   0  0  0  0  0  0  0  0  0  0  0  0
    0.0000    0.0000    0.0000 H   0  0  0  0  0  0  0  0  0  0  0  0
    0.0000    0.0000    0.0000 H   0  0  0  0  0  0  0  0  0  0  0  0
    0.0000    0.0000    0.0000 H   0  0  0  0  0  0  0  0  0  0  0  0
    0.0000    0.0000    0.0000 H   0  0  0  0  0  0  0  0  0  0  0  0
    0.0000    0.0000    0.0000 H   0  0  0  0  0  0  0  0  0  0  0  0
    0.0000    0.0000    0.0000 H   0  0  0  0  0  0  0  0  0  0  0  0
    0.0000    0.0000    0.0000 H   0  0  0  0  0  0  0  0  0  0  0  0
    0.0000    0.0000    0.0000 H   0  0  0  0  0  0  0  0  0  0  0  0
    0.0000    0.0000    0.0000 H   0  0  0  0  0  0  0  0  0  0  0  0
    0.0000    0.0000    0.0000 H   0  0  0  0  0  0  0  0  0  0  0  0
  1  2  1  0
  2  3  1  0
  3  4  2  0
  4  5  1  0
  5  6  1  0
  1  6  1  0
  4  7  1  0
  7  8  1  0
  8  9  1  0
  9 10  1  0
  5 10  1  0
  9 11  1  0
 11 12  1  0
 12 13  1  0
 13 14  1  0
 10 14  1  0
  5 15  1  1
 14 16  1  1
 12 17  1  1
 10 18  1  6
  2 19  2  0
 11 20  1  0
 20 21  1  0
 21 22  1  0
 12 22  1  0
 22 23  1  1
 23 24  1  0
 23 25  2  0
 24 26  1  0
 22 27  1  0
 21 28  1  0
 27 29  1  0
 29 28  1  0
 29 30  1  0
 29 31  1  0
  1 32  1  0
  1 33  1  0
  3 34  1  0
  6 35  1  0
  6 36  1  0
  7 37  1  0
  7 38  1  0
  8 39  1  0
  8 40  1  0
  9 41  1  1
 11 42  1  6
 13 43  1  0
 13 44  1  0
 14 45  1  0
 15 46  1  0
 15 47  1  0
 15 48  1  0
 16 49  1  0
 17 50  1  0
 17 51  1  0
 17 52  1  0
 20 53  1  0
 20 54  1  0
 21 55  1  1
 24 56  1  0
 24 57  1  0
 30 58  1  0
 30 59  1  0
 30 60  1  0
 31 61  1  0
 31 62  1  0
 31 63  1  0
M  END
>  <ALOGPS_LOGP>  (1) 
3.31

>  <ALOGPS_LOGS>  (1) 
-4.61

>  <ALOGPS_SOLUBILITY>  (1) 
1.12e-02 g/l

>  <DATABASE_ID>  (1) 
DB06786

>  <DATABASE_NAME>  (1) 
drugbank

>  <DRUGBANK_ID>  (1) 
DB06786

>  <DRUG_GROUPS>  (1) 
approved; investigational; withdrawn

>  <EXACT_MASS>  (1) 
454.19223

>  <FORMULA>  (1) 
C24H32ClFO5

>  <GENERIC_NAME>  (1) 
Halcinonide

>  <INCHI_IDENTIFIER>  (1) 
InChI=1S/C24H32ClFO5/c1-20(2)30-19-10-16-15-6-5-13-9-14(27)7-8-21(13,3)23(15,26)17(28)11-22(16,4)24(19,31-20)18(29)12-25/h9,15-17,19,28H,5-8,10-12H2,1-4H3/t15-,16-,17-,19+,21-,22-,23-,24+/m0/s1

>  <INCHI_KEY>  (1) 
MUQNGPZZQDCDFT-JNQJZLCISA-N

>  <INTERNATIONAL_BRANDS>  (1) 
Adcortin; Berodan; Betacorton; Confumin; Cortilate; Ha Le Te; Halciderm; Halcinonide-Pacific Pharm; Sawastin

>  <JCHEM_ACCEPTOR_COUNT>  (1) 
5

>  <JCHEM_ATOM_COUNT>  (1) 
63

>  <JCHEM_AVERAGE_POLARIZABILITY>  (1) 
46.60725286381555

>  <JCHEM_BIOAVAILABILITY>  (1) 
1

>  <JCHEM_DONOR_COUNT>  (1) 
1

>  <JCHEM_FORMAL_CHARGE>  (1) 
0

>  <JCHEM_GHOSE_FILTER>  (1) 
1

>  <JCHEM_IUPAC>  (1) 
(1S,2S,4R,8S,9S,11S,12R,13S)-8-(2-chloroacetyl)-12-fluoro-11-hydroxy-6,6,9,13-tetramethyl-5,7-dioxapentacyclo[10.8.0.0²,⁹.0⁴,⁸.0¹³,¹⁸]icos-17-en-16-one

>  <JCHEM_LOGP>  (1) 
3.300886228333331

>  <JCHEM_MDDR_LIKE_RULE>  (1) 
0

>  <JCHEM_NUMBER_OF_RINGS>  (1) 
5

>  <JCHEM_PHYSIOLOGICAL_CHARGE>  (1) 
0

>  <JCHEM_PKA>  (1) 
15.037330728878644

>  <JCHEM_PKA_STRONGEST_ACIDIC>  (1) 
13.632762911940176

>  <JCHEM_PKA_STRONGEST_BASIC>  (1) 
-3.3888281303583305

>  <JCHEM_POLAR_SURFACE_AREA>  (1) 
72.83

>  <JCHEM_REFRACTIVITY>  (1) 
113.54749999999999

>  <JCHEM_ROTATABLE_BOND_COUNT>  (1) 
2

>  <JCHEM_RULE_OF_FIVE>  (1) 
1

>  <JCHEM_TRADITIONAL_IUPAC>  (1) 
halog

>  <JCHEM_VEBER_RULE>  (1) 
0

>  <MOLECULAR_WEIGHT>  (1) 
454.96

>  <PRODUCTS>  (1) 
Halog; Halog Cream 0.1%; Halog Liq 0.1%; Halog Ont 0.1%

>  <SMILES>  (1) 
[H][C@@]12C[C@H]3OC(C)(C)O[C@@]3(C(=O)CCl)[C@@]1(C)C[C@H](O)[C@@]1(F)[C@@]2([H])CCC2=CC(=O)CC[C@]12C

>  <SYNONYMS>  (1) 
(4aS,4bR,5S,6aS,6bS,9aR,10aS,10bS)-6b-(chloroacetyl)-4b-fluoro-5-hydroxy-4a,6a,8,8-tetramethyl-3,4,4a,4b,5,6,6a,6b,9a,10,10a,10b,11,12-tetradecahydro-2H-naphtho[2',1':4,5]indeno[1,2-d][1,3]dioxol-2-one; Halcinonid; Halcinonida; Halcinonide; Halcinonidum

$$$$
