
     RDKit          2D

 39 39  0  0  1  0  0  0  0  0999 V2000
    1.6500   -2.2193    0.0000 O   0  0  0  0  0  0  0  0  0  0  0  0
    4.5080    1.9058    0.0000 N   0  0  0  0  0  0  0  0  0  0  0  0
    3.0791    0.2558    0.0000 C   0  0  0  0  0  0  0  0  0  0  0  0
    3.7935    0.6683    0.0000 C   0  0  0  0  0  0  0  0  0  0  0  0
    3.7935    1.4933    0.0000 C   0  0  0  0  0  0  0  0  0  0  0  0
    2.3645    0.6683    0.0000 C   0  0  0  0  0  0  0  0  0  0  0  0
    3.0791   -0.5693    0.0000 C   0  0  0  0  0  0  0  0  0  0  0  0
    4.5080    0.2558    0.0000 C   0  0  0  0  0  0  0  0  0  0  0  0
    2.3645    1.4933    0.0000 C   0  0  0  0  0  0  0  0  0  0  0  0
    2.3645   -0.9818    0.0000 C   0  0  0  0  0  0  0  0  0  0  0  0
    3.7935   -0.9818    0.0000 C   0  0  0  0  0  0  0  0  0  0  0  0
    4.5080    2.7308    0.0000 C   0  0  0  0  0  0  0  0  0  0  0  0
    5.2224    1.4933    0.0000 C   0  0  0  0  0  0  0  0  0  0  0  0
    2.3645   -1.8068    0.0000 C   0  0  0  0  0  0  0  0  0  0  0  0
    3.7935   -1.8068    0.0000 C   0  0  0  0  0  0  0  0  0  0  0  0
    3.0791   -2.2193    0.0000 C   0  0  0  0  0  0  0  0  0  0  0  0
    0.0000    0.0000    0.0000 H   0  0  0  0  0  0  0  0  0  0  0  0
    0.0000    0.0000    0.0000 H   0  0  0  0  0  0  0  0  0  0  0  0
    0.0000    0.0000    0.0000 H   0  0  0  0  0  0  0  0  0  0  0  0
    0.0000    0.0000    0.0000 H   0  0  0  0  0  0  0  0  0  0  0  0
    0.0000    0.0000    0.0000 H   0  0  0  0  0  0  0  0  0  0  0  0
    0.0000    0.0000    0.0000 H   0  0  0  0  0  0  0  0  0  0  0  0
    0.0000    0.0000    0.0000 H   0  0  0  0  0  0  0  0  0  0  0  0
    0.0000    0.0000    0.0000 H   0  0  0  0  0  0  0  0  0  0  0  0
    0.0000    0.0000    0.0000 H   0  0  0  0  0  0  0  0  0  0  0  0
    0.0000    0.0000    0.0000 H   0  0  0  0  0  0  0  0  0  0  0  0
    0.0000    0.0000    0.0000 H   0  0  0  0  0  0  0  0  0  0  0  0
    0.0000    0.0000    0.0000 H   0  0  0  0  0  0  0  0  0  0  0  0
    0.0000    0.0000    0.0000 H   0  0  0  0  0  0  0  0  0  0  0  0
    0.0000    0.0000    0.0000 H   0  0  0  0  0  0  0  0  0  0  0  0
    0.0000    0.0000    0.0000 H   0  0  0  0  0  0  0  0  0  0  0  0
    0.0000    0.0000    0.0000 H   0  0  0  0  0  0  0  0  0  0  0  0
    0.0000    0.0000    0.0000 H   0  0  0  0  0  0  0  0  0  0  0  0
    0.0000    0.0000    0.0000 H   0  0  0  0  0  0  0  0  0  0  0  0
    0.0000    0.0000    0.0000 H   0  0  0  0  0  0  0  0  0  0  0  0
    0.0000    0.0000    0.0000 H   0  0  0  0  0  0  0  0  0  0  0  0
    0.0000    0.0000    0.0000 H   0  0  0  0  0  0  0  0  0  0  0  0
    0.0000    0.0000    0.0000 H   0  0  0  0  0  0  0  0  0  0  0  0
    0.0000    0.0000    0.0000 H   0  0  0  0  0  0  0  0  0  0  0  0
  1 14  1  0
  2  5  1  0
  2 12  1  0
  2 13  1  0
  3  4  1  0
  3  6  1  6
  3  7  1  0
  4  5  1  6
  4  8  1  0
  6  9  1  0
  7 10  2  0
  7 11  1  0
 10 14  1  0
 11 15  2  0
 14 16  2  0
 15 16  1  0
  1 17  1  0
  3 18  1  0
  4 19  1  0
  5 20  1  0
  5 21  1  0
  6 22  1  0
  6 23  1  0
  8 24  1  0
  8 25  1  0
  8 26  1  0
  9 27  1  0
  9 28  1  0
  9 29  1  0
 10 30  1  0
 11 31  1  0
 12 32  1  0
 12 33  1  0
 12 34  1  0
 13 35  1  0
 13 36  1  0
 13 37  1  0
 15 38  1  0
 16 39  1  0
M  END
>  <ALOGPS_LOGP>  (1) 
3.47

>  <ALOGPS_LOGS>  (1) 
-2.45

>  <ALOGPS_SOLUBILITY>  (1) 
7.80e-01 g/l

>  <DATABASE_ID>  (1) 
DB06204

>  <DATABASE_NAME>  (1) 
drugbank

>  <DRUGBANK_ID>  (1) 
DB06204

>  <DRUG_GROUPS>  (1) 
approved

>  <EXACT_MASS>  (1) 
221.177964363

>  <FORMULA>  (1) 
C14H23NO

>  <GENERIC_NAME>  (1) 
Tapentadol

>  <INCHI_IDENTIFIER>  (1) 
InChI=1S/C14H23NO/c1-5-14(11(2)10-15(3)4)12-7-6-8-13(16)9-12/h6-9,11,14,16H,5,10H2,1-4H3/t11-,14+/m0/s1

>  <INCHI_KEY>  (1) 
KWTWDQCKEHXFFR-SMDDNHRTSA-N

>  <INTERNATIONAL_BRANDS>  (1) 
Palexia; TAPAL 

>  <JCHEM_ACCEPTOR_COUNT>  (1) 
2

>  <JCHEM_AVERAGE_POLARIZABILITY>  (1) 
26.584596110174566

>  <JCHEM_BIOAVAILABILITY>  (1) 
1

>  <JCHEM_DONOR_COUNT>  (1) 
1

>  <JCHEM_FORMAL_CHARGE>  (1) 
0

>  <JCHEM_GHOSE_FILTER>  (1) 
1

>  <JCHEM_IUPAC>  (1) 
3-[(2R,3R)-1-(dimethylamino)-2-methylpentan-3-yl]phenol

>  <JCHEM_LOGP>  (1) 
2.9585336273557528

>  <JCHEM_MDDR_LIKE_RULE>  (1) 
0

>  <JCHEM_NUMBER_OF_RINGS>  (1) 
1

>  <JCHEM_PHYSIOLOGICAL_CHARGE>  (1) 
1

>  <JCHEM_PKA_STRONGEST_ACIDIC>  (1) 
10.27711538224564

>  <JCHEM_PKA_STRONGEST_BASIC>  (1) 
9.604633592123502

>  <JCHEM_POLAR_SURFACE_AREA>  (1) 
23.47

>  <JCHEM_REFRACTIVITY>  (1) 
69.5588

>  <JCHEM_ROTATABLE_BOND_COUNT>  (1) 
5

>  <JCHEM_RULE_OF_FIVE>  (1) 
1

>  <JCHEM_TRADITIONAL_IUPAC>  (1) 
tapentadol

>  <JCHEM_VEBER_RULE>  (1) 
1

>  <MOLECULAR_WEIGHT>  (1) 
221.3385

>  <PRODUCTS>  (1) 
Nucynta; Nucynta CR; Nucynta ER; Nucynta Extended-release; Nucynta Ir

>  <SALTS>  (1) 
Tapentadol hydrochloride

>  <SMILES>  (1) 
CC[C@H]([C@@H](C)CN(C)C)C1=CC(O)=CC=C1

$$$$
