
     RDKit          2D

 44 45  0  0  0  0  0  0  0  0999 V2000
   14.0800   -3.9325    0.0000 C   0  0  0  0  0  0  0  0  0  0  0  0
   13.3655   -3.5200    0.0000 C   0  0  0  0  0  0  0  0  0  0  0  0
   13.3655   -2.6950    0.0000 C   0  0  0  0  0  0  0  0  0  0  0  0
   14.7945   -3.5200    0.0000 C   0  0  0  0  0  0  0  0  0  0  0  0
   14.7945   -2.6950    0.0000 C   0  0  0  0  0  0  0  0  0  0  0  0
   14.0800   -2.2825    0.0000 C   0  0  0  0  0  0  0  0  0  0  0  0
   15.5791   -2.4401    0.0000 N   0  0  0  0  0  0  0  0  0  0  0  0
   16.0640   -3.1076    0.0000 C   0  0  0  0  0  0  0  0  0  0  0  0
   15.5791   -3.7750    0.0000 N   0  0  0  0  0  0  0  0  0  0  0  0
   16.8890   -3.1076    0.0000 C   0  0  0  0  0  0  0  0  0  0  0  0
   17.3015   -2.3931    0.0000 C   0  0  0  0  0  0  0  0  0  0  0  0
   18.1265   -2.3931    0.0000 C   0  0  0  0  0  0  0  0  0  0  0  0
   18.5390   -1.6787    0.0000 C   0  0  0  0  0  0  0  0  0  0  0  0
   17.8245   -1.2662    0.0000 O   0  0  0  0  0  0  0  0  0  0  0  0
   19.3640   -1.6787    0.0000 O   0  0  0  0  0  0  0  0  0  0  0  0
   15.9916   -1.7257    0.0000 C   0  0  0  0  0  0  0  0  0  0  0  0
   12.6511   -3.9325    0.0000 N   0  0  0  0  0  0  0  0  0  0  0  0
   12.6511   -4.7575    0.0000 C   0  0  0  0  0  0  0  0  0  0  0  0
   11.9366   -3.5200    0.0000 C   0  0  0  0  0  0  0  0  0  0  0  0
   11.2221   -3.9325    0.0000 C   0  0  0  0  0  0  0  0  0  0  0  0
   10.5076   -3.5200    0.0000 Cl  0  0  0  0  0  0  0  0  0  0  0  0
   11.9366   -5.1700    0.0000 C   0  0  0  0  0  0  0  0  0  0  0  0
   11.9366   -5.9950    0.0000 Cl  0  0  0  0  0  0  0  0  0  0  0  0
    0.0000    0.0000    0.0000 H   0  0  0  0  0  0  0  0  0  0  0  0
    0.0000    0.0000    0.0000 H   0  0  0  0  0  0  0  0  0  0  0  0
    0.0000    0.0000    0.0000 H   0  0  0  0  0  0  0  0  0  0  0  0
    0.0000    0.0000    0.0000 H   0  0  0  0  0  0  0  0  0  0  0  0
    0.0000    0.0000    0.0000 H   0  0  0  0  0  0  0  0  0  0  0  0
    0.0000    0.0000    0.0000 H   0  0  0  0  0  0  0  0  0  0  0  0
    0.0000    0.0000    0.0000 H   0  0  0  0  0  0  0  0  0  0  0  0
    0.0000    0.0000    0.0000 H   0  0  0  0  0  0  0  0  0  0  0  0
    0.0000    0.0000    0.0000 H   0  0  0  0  0  0  0  0  0  0  0  0
    0.0000    0.0000    0.0000 H   0  0  0  0  0  0  0  0  0  0  0  0
    0.0000    0.0000    0.0000 H   0  0  0  0  0  0  0  0  0  0  0  0
    0.0000    0.0000    0.0000 H   0  0  0  0  0  0  0  0  0  0  0  0
    0.0000    0.0000    0.0000 H   0  0  0  0  0  0  0  0  0  0  0  0
    0.0000    0.0000    0.0000 H   0  0  0  0  0  0  0  0  0  0  0  0
    0.0000    0.0000    0.0000 H   0  0  0  0  0  0  0  0  0  0  0  0
    0.0000    0.0000    0.0000 H   0  0  0  0  0  0  0  0  0  0  0  0
    0.0000    0.0000    0.0000 H   0  0  0  0  0  0  0  0  0  0  0  0
    0.0000    0.0000    0.0000 H   0  0  0  0  0  0  0  0  0  0  0  0
    0.0000    0.0000    0.0000 H   0  0  0  0  0  0  0  0  0  0  0  0
    0.0000    0.0000    0.0000 H   0  0  0  0  0  0  0  0  0  0  0  0
    0.0000    0.0000    0.0000 H   0  0  0  0  0  0  0  0  0  0  0  0
  1  2  2  0
  2  3  1  0
  1  4  1  0
  4  5  2  0
  5  6  1  0
  6  3  2  0
  5  7  1  0
  7  8  1  0
  8  9  2  0
  9  4  1  0
  8 10  1  0
 10 11  1  0
 11 12  1  0
 12 13  1  0
 13 14  2  0
 13 15  1  0
  7 16  1  0
  2 17  1  0
 17 18  1  0
 17 19  1  0
 19 20  1  0
 20 21  1  0
 18 22  1  0
 22 23  1  0
  1 24  1  0
  3 25  1  0
  6 26  1  0
 10 27  1  0
 10 28  1  0
 11 29  1  0
 11 30  1  0
 12 31  1  0
 12 32  1  0
 15 33  1  0
 16 34  1  0
 16 35  1  0
 16 36  1  0
 18 37  1  0
 18 38  1  0
 19 39  1  0
 19 40  1  0
 20 41  1  0
 20 42  1  0
 22 43  1  0
 22 44  1  0
M  END
>  <ALOGPS_LOGP>  (1) 
3.07

>  <ALOGPS_LOGS>  (1) 
-3.76

>  <ALOGPS_SOLUBILITY>  (1) 
6.18e-02 g/l

>  <DATABASE_ID>  (1) 
DB06769

>  <DATABASE_NAME>  (1) 
drugbank

>  <DRUGBANK_ID>  (1) 
DB06769

>  <DRUG_GROUPS>  (1) 
approved; investigational

>  <EXACT_MASS>  (1) 
357.101082345

>  <FORMULA>  (1) 
C16H21Cl2N3O2

>  <GENERIC_NAME>  (1) 
Bendamustine

>  <INCHI_IDENTIFIER>  (1) 
InChI=1S/C16H21Cl2N3O2/c1-20-14-6-5-12(21(9-7-17)10-8-18)11-13(14)19-15(20)3-2-4-16(22)23/h5-6,11H,2-4,7-10H2,1H3,(H,22,23)

>  <INCHI_KEY>  (1) 
YTKUWDBFDASYHO-UHFFFAOYSA-N

>  <INTERNATIONAL_BRANDS>  (1) 
Levact; Treakisym

>  <JCHEM_ACCEPTOR_COUNT>  (1) 
4

>  <JCHEM_AVERAGE_POLARIZABILITY>  (1) 
38.193394007129754

>  <JCHEM_BIOAVAILABILITY>  (1) 
1

>  <JCHEM_DONOR_COUNT>  (1) 
1

>  <JCHEM_FORMAL_CHARGE>  (1) 
0

>  <JCHEM_GHOSE_FILTER>  (1) 
1

>  <JCHEM_IUPAC>  (1) 
4-{5-[bis(2-chloroethyl)amino]-1-methyl-1H-1,3-benzodiazol-2-yl}butanoic acid

>  <JCHEM_LOGP>  (1) 
1.6649948628935591

>  <JCHEM_MDDR_LIKE_RULE>  (1) 
0

>  <JCHEM_NUMBER_OF_RINGS>  (1) 
2

>  <JCHEM_PHYSIOLOGICAL_CHARGE>  (1) 
-1

>  <JCHEM_PKA_STRONGEST_ACIDIC>  (1) 
4.377239503830114

>  <JCHEM_PKA_STRONGEST_BASIC>  (1) 
6.648069076034413

>  <JCHEM_POLAR_SURFACE_AREA>  (1) 
58.36000000000001

>  <JCHEM_REFRACTIVITY>  (1) 
92.91539999999999

>  <JCHEM_ROTATABLE_BOND_COUNT>  (1) 
9

>  <JCHEM_RULE_OF_FIVE>  (1) 
1

>  <JCHEM_TRADITIONAL_IUPAC>  (1) 
bendamustine

>  <JCHEM_VEBER_RULE>  (1) 
0

>  <MOLECULAR_WEIGHT>  (1) 
358.263

>  <PRODUCTS>  (1) 
Bendeka; Treanda

>  <SALTS>  (1) 
Bendamustine hydrochloride

>  <SMILES>  (1) 
CN1C(CCCC(O)=O)=NC2=CC(=CC=C12)N(CCCl)CCCl

>  <SYNONYMS>  (1) 
Ribomustine

$$$$
