
     RDKit          2D

133136  0  0  1  0  0  0  0  0999 V2000
   -3.1076   -0.0468    0.0000 C   0  0  0  0  0  0  0  0  0  0  0  0
   -3.1076    5.7282    0.0000 C   0  0  0  0  0  0  0  0  0  0  0  0
   -0.2497   -1.6968    0.0000 C   0  0  0  0  0  0  0  0  0  0  0  0
   -4.7493   -0.5388    0.0000 C   0  0  0  0  0  0  0  0  0  0  0  0
   -5.7691   -3.6773    0.0000 C   0  0  0  0  0  0  0  0  0  0  0  0
   -3.7238   -2.3238    0.0000 C   0  0  0  0  0  0  0  0  0  0  0  0
   -0.9642   -2.9343    0.0000 C   0  0  0  0  0  0  0  0  0  0  0  0
   -2.3931   -2.9343    0.0000 C   0  0  0  0  0  0  0  0  0  0  0  0
   -7.7223   -0.4403    0.0000 C   0  0  0  0  0  0  0  0  0  0  0  0
   -8.0194    0.9574    0.0000 C   0  0  0  0  0  0  0  0  0  0  0  0
   -5.9655    3.2532    0.0000 C   0  0  0  0  0  0  0  0  0  0  0  0
   -1.6787    3.2532    0.0000 C   0  0  0  0  0  0  0  0  0  0  0  0
   -2.3931    3.6657    0.0000 C   0  0  0  0  0  0  0  0  0  0  0  0
   -1.6787    2.4282    0.0000 C   0  0  0  0  0  0  0  0  0  0  0  0
   -2.3931    4.4907    0.0000 C   0  0  0  0  0  0  0  0  0  0  0  0
   -2.3931    2.0157    0.0000 C   0  0  0  0  0  0  0  0  0  0  0  0
   -2.3931   -1.2843    0.0000 C   0  0  0  0  0  0  0  0  0  0  0  0
   -2.3931   -0.4593    0.0000 C   0  0  0  0  0  0  0  0  0  0  0  0
   -4.5365    1.6032    0.0000 C   0  0  0  0  0  0  0  0  0  0  0  0
   -4.5365    0.7782    0.0000 C   0  0  0  0  0  0  0  0  0  0  0  0
   -3.8221    1.1907    0.0000 C   0  0  0  0  0  0  0  0  0  0  0  0
   -5.2510    4.4907    0.0000 C   0  0  0  0  0  0  0  0  0  0  0  0
   -5.0043   -1.3234    0.0000 C   0  0  0  0  0  0  0  0  0  0  0  0
   -3.1076    0.7782    0.0000 C   0  0  0  0  0  0  0  0  0  0  0  0
   -3.1076    4.9032    0.0000 C   0  0  0  0  0  0  0  0  0  0  0  0
   -0.9642   -1.2843    0.0000 C   0  0  0  0  0  0  0  0  0  0  0  0
   -5.3014    0.0743    0.0000 C   0  0  0  0  0  0  0  0  0  0  0  0
   -5.5141   -2.8926    0.0000 C   0  0  0  0  0  0  0  0  0  0  0  0
   -3.8221    2.0157    0.0000 C   0  0  0  0  0  0  0  0  0  0  0  0
   -1.6787   -1.6968    0.0000 C   0  0  0  0  0  0  0  0  0  0  0  0
   -5.2510    3.6657    0.0000 C   0  0  0  0  0  0  0  0  0  0  0  0
   -2.3931    1.1907    0.0000 C   0  0  0  0  0  0  0  0  0  0  0  0
   -4.5365    4.9032    0.0000 C   0  0  0  0  0  0  0  0  0  0  0  0
   -1.6787   -0.0468    0.0000 C   0  0  0  0  0  0  0  0  0  0  0  0
   -5.8112   -1.4949    0.0000 C   0  0  0  0  0  0  0  0  0  0  0  0
   -6.6604    0.5159    0.0000 C   0  0  0  0  0  0  0  0  0  0  0  0
   -6.4054    1.3005    0.0000 C   0  0  0  0  0  0  0  0  0  0  0  0
   -6.1083   -0.0972    0.0000 C   0  0  0  0  0  0  0  0  0  0  0  0
   -4.5365    2.4282    0.0000 C   0  0  0  0  0  0  0  0  0  0  0  0
   -4.5365    3.2532    0.0000 C   0  0  0  0  0  0  0  0  0  0  0  0
   -4.7072   -2.7211    0.0000 C   0  0  0  0  0  0  0  0  0  0  0  0
   -5.5985    1.4720    0.0000 C   0  0  0  0  0  0  0  0  0  0  0  0
   -4.4522   -1.9365    0.0000 C   0  0  0  0  0  0  0  0  0  0  0  0
   -1.6787   -2.5218    0.0000 N   0  0  0  0  0  0  0  0  0  0  0  0
   -7.4673    0.3444    0.0000 N   0  0  0  0  0  0  0  0  0  0  0  0
   -3.8221    0.3657    0.0000 O   0  0  0  0  0  0  0  0  0  0  0  0
   -6.0715    3.7519    0.0000 O   0  0  0  0  0  0  0  0  0  0  0  0
   -4.5365    5.7282    0.0000 O   0  0  0  0  0  0  0  0  0  0  0  0
   -6.9575    1.9136    0.0000 O   0  0  0  0  0  0  0  0  0  0  0  0
   -4.1551   -3.3342    0.0000 O   0  0  0  0  0  0  0  0  0  0  0  0
   -3.9443   -1.2864    0.0000 O   0  0  0  0  0  0  0  0  0  0  0  0
   -5.2510    2.8407    0.0000 O   0  0  0  0  0  0  0  0  0  0  0  0
   -3.8221    4.4907    0.0000 O   0  0  0  0  0  0  0  0  0  0  0  0
   -0.9642   -0.4593    0.0000 O   0  0  0  0  0  0  0  0  0  0  0  0
   -6.0662   -2.2796    0.0000 O   0  0  0  0  0  0  0  0  0  0  0  0
   -5.0464    0.8589    0.0000 O   0  0  0  0  0  0  0  0  0  0  0  0
   -1.6787    0.7782    0.0000 O   0  0  0  0  0  0  0  0  0  0  0  0
   -6.3633   -0.8818    0.0000 O   0  0  0  0  0  0  0  0  0  0  0  0
   -5.3435    2.2566    0.0000 O   0  0  0  0  0  0  0  0  0  0  0  0
    0.0000    0.0000    0.0000 H   0  0  0  0  0  0  0  0  0  0  0  0
    0.0000    0.0000    0.0000 H   0  0  0  0  0  0  0  0  0  0  0  0
    0.0000    0.0000    0.0000 H   0  0  0  0  0  0  0  0  0  0  0  0
    0.0000    0.0000    0.0000 H   0  0  0  0  0  0  0  0  0  0  0  0
    0.0000    0.0000    0.0000 H   0  0  0  0  0  0  0  0  0  0  0  0
    0.0000    0.0000    0.0000 H   0  0  0  0  0  0  0  0  0  0  0  0
    0.0000    0.0000    0.0000 H   0  0  0  0  0  0  0  0  0  0  0  0
    0.0000    0.0000    0.0000 H   0  0  0  0  0  0  0  0  0  0  0  0
    0.0000    0.0000    0.0000 H   0  0  0  0  0  0  0  0  0  0  0  0
    0.0000    0.0000    0.0000 H   0  0  0  0  0  0  0  0  0  0  0  0
    0.0000    0.0000    0.0000 H   0  0  0  0  0  0  0  0  0  0  0  0
    0.0000    0.0000    0.0000 H   0  0  0  0  0  0  0  0  0  0  0  0
    0.0000    0.0000    0.0000 H   0  0  0  0  0  0  0  0  0  0  0  0
    0.0000    0.0000    0.0000 H   0  0  0  0  0  0  0  0  0  0  0  0
    0.0000    0.0000    0.0000 H   0  0  0  0  0  0  0  0  0  0  0  0
    0.0000    0.0000    0.0000 H   0  0  0  0  0  0  0  0  0  0  0  0
    0.0000    0.0000    0.0000 H   0  0  0  0  0  0  0  0  0  0  0  0
    0.0000    0.0000    0.0000 H   0  0  0  0  0  0  0  0  0  0  0  0
    0.0000    0.0000    0.0000 H   0  0  0  0  0  0  0  0  0  0  0  0
    0.0000    0.0000    0.0000 H   0  0  0  0  0  0  0  0  0  0  0  0
    0.0000    0.0000    0.0000 H   0  0  0  0  0  0  0  0  0  0  0  0
    0.0000    0.0000    0.0000 H   0  0  0  0  0  0  0  0  0  0  0  0
    0.0000    0.0000    0.0000 H   0  0  0  0  0  0  0  0  0  0  0  0
    0.0000    0.0000    0.0000 H   0  0  0  0  0  0  0  0  0  0  0  0
    0.0000    0.0000    0.0000 H   0  0  0  0  0  0  0  0  0  0  0  0
    0.0000    0.0000    0.0000 H   0  0  0  0  0  0  0  0  0  0  0  0
    0.0000    0.0000    0.0000 H   0  0  0  0  0  0  0  0  0  0  0  0
    0.0000    0.0000    0.0000 H   0  0  0  0  0  0  0  0  0  0  0  0
    0.0000    0.0000    0.0000 H   0  0  0  0  0  0  0  0  0  0  0  0
    0.0000    0.0000    0.0000 H   0  0  0  0  0  0  0  0  0  0  0  0
    0.0000    0.0000    0.0000 H   0  0  0  0  0  0  0  0  0  0  0  0
    0.0000    0.0000    0.0000 H   0  0  0  0  0  0  0  0  0  0  0  0
    0.0000    0.0000    0.0000 H   0  0  0  0  0  0  0  0  0  0  0  0
    0.0000    0.0000    0.0000 H   0  0  0  0  0  0  0  0  0  0  0  0
    0.0000    0.0000    0.0000 H   0  0  0  0  0  0  0  0  0  0  0  0
    0.0000    0.0000    0.0000 H   0  0  0  0  0  0  0  0  0  0  0  0
    0.0000    0.0000    0.0000 H   0  0  0  0  0  0  0  0  0  0  0  0
    0.0000    0.0000    0.0000 H   0  0  0  0  0  0  0  0  0  0  0  0
    0.0000    0.0000    0.0000 H   0  0  0  0  0  0  0  0  0  0  0  0
    0.0000    0.0000    0.0000 H   0  0  0  0  0  0  0  0  0  0  0  0
    0.0000    0.0000    0.0000 H   0  0  0  0  0  0  0  0  0  0  0  0
    0.0000    0.0000    0.0000 H   0  0  0  0  0  0  0  0  0  0  0  0
    0.0000    0.0000    0.0000 H   0  0  0  0  0  0  0  0  0  0  0  0
    0.0000    0.0000    0.0000 H   0  0  0  0  0  0  0  0  0  0  0  0
    0.0000    0.0000    0.0000 H   0  0  0  0  0  0  0  0  0  0  0  0
    0.0000    0.0000    0.0000 H   0  0  0  0  0  0  0  0  0  0  0  0
    0.0000    0.0000    0.0000 H   0  0  0  0  0  0  0  0  0  0  0  0
    0.0000    0.0000    0.0000 H   0  0  0  0  0  0  0  0  0  0  0  0
    0.0000    0.0000    0.0000 H   0  0  0  0  0  0  0  0  0  0  0  0
    0.0000    0.0000    0.0000 H   0  0  0  0  0  0  0  0  0  0  0  0
    0.0000    0.0000    0.0000 H   0  0  0  0  0  0  0  0  0  0  0  0
    0.0000    0.0000    0.0000 H   0  0  0  0  0  0  0  0  0  0  0  0
    0.0000    0.0000    0.0000 H   0  0  0  0  0  0  0  0  0  0  0  0
    0.0000    0.0000    0.0000 H   0  0  0  0  0  0  0  0  0  0  0  0
    0.0000    0.0000    0.0000 H   0  0  0  0  0  0  0  0  0  0  0  0
    0.0000    0.0000    0.0000 H   0  0  0  0  0  0  0  0  0  0  0  0
    0.0000    0.0000    0.0000 H   0  0  0  0  0  0  0  0  0  0  0  0
    0.0000    0.0000    0.0000 H   0  0  0  0  0  0  0  0  0  0  0  0
    0.0000    0.0000    0.0000 H   0  0  0  0  0  0  0  0  0  0  0  0
    0.0000    0.0000    0.0000 H   0  0  0  0  0  0  0  0  0  0  0  0
    0.0000    0.0000    0.0000 H   0  0  0  0  0  0  0  0  0  0  0  0
    0.0000    0.0000    0.0000 H   0  0  0  0  0  0  0  0  0  0  0  0
    0.0000    0.0000    0.0000 H   0  0  0  0  0  0  0  0  0  0  0  0
    0.0000    0.0000    0.0000 H   0  0  0  0  0  0  0  0  0  0  0  0
    0.0000    0.0000    0.0000 H   0  0  0  0  0  0  0  0  0  0  0  0
    0.0000    0.0000    0.0000 H   0  0  0  0  0  0  0  0  0  0  0  0
    0.0000    0.0000    0.0000 H   0  0  0  0  0  0  0  0  0  0  0  0
    0.0000    0.0000    0.0000 H   0  0  0  0  0  0  0  0  0  0  0  0
    0.0000    0.0000    0.0000 H   0  0  0  0  0  0  0  0  0  0  0  0
    0.0000    0.0000    0.0000 H   0  0  0  0  0  0  0  0  0  0  0  0
    0.0000    0.0000    0.0000 H   0  0  0  0  0  0  0  0  0  0  0  0
    0.0000    0.0000    0.0000 H   0  0  0  0  0  0  0  0  0  0  0  0
    0.0000    0.0000    0.0000 H   0  0  0  0  0  0  0  0  0  0  0  0
    0.0000    0.0000    0.0000 H   0  0  0  0  0  0  0  0  0  0  0  0
 13 12  2  0
 14 12  1  0
 15 13  1  0
 16 14  2  0
 18 17  1  0
 20 19  1  0
 24  1  1  6
 24 21  1  0
 25  2  1  1
 25 15  1  0
 26  3  1  1
 27  4  1  6
 28  5  1  1
 29 19  1  1
 29 21  1  0
 30 17  1  0
 30 26  1  0
 31 22  1  0
 32 16  1  0
 32 24  1  0
 33 22  1  0
 34 18  1  0
 35 23  1  0
 37 36  1  0
 38 27  1  0
 38 36  1  0
 39 29  1  0
 40 31  1  0
 40 39  1  0
 41 28  1  0
 42 37  1  0
 43  6  1  6
 43 23  1  0
 43 41  1  0
 44  7  1  0
 44  8  1  0
 30 44  1  6
 45  9  1  0
 45 10  1  0
 36 45  1  1
 46 20  2  0
 31 47  1  6
 48 33  2  0
 37 49  1  6
 41 50  1  1
 43 51  1  0
 52 11  1  0
 40 52  1  6
 53 25  1  0
 53 33  1  0
 54 26  1  0
 54 34  1  0
 55 28  1  0
 55 35  1  0
 56 27  1  0
 56 42  1  0
 32 57  1  6
 34 57  1  6
 35 58  1  1
 38 58  1  1
 39 59  1  1
 42 59  1  6
  1 60  1  0
  1 61  1  0
  1 62  1  0
  2 63  1  0
  2 64  1  0
  2 65  1  0
  3 66  1  0
  3 67  1  0
  3 68  1  0
  4 69  1  0
  4 70  1  0
  4 71  1  0
  5 72  1  0
  5 73  1  0
  5 74  1  0
  6 75  1  0
  6 76  1  0
  6 77  1  0
  7 78  1  0
  7 79  1  0
  7 80  1  0
  8 81  1  0
  8 82  1  0
  8 83  1  0
  9 84  1  0
  9 85  1  0
  9 86  1  0
 10 87  1  0
 10 88  1  0
 10 89  1  0
 11 90  1  0
 11 91  1  0
 11 92  1  0
 12 93  1  0
 13 94  1  0
 14 95  1  0
 15 96  1  0
 15 97  1  0
 16 98  1  0
 17 99  1  0
 17100  1  0
 18101  1  0
 18102  1  0
 19103  1  0
 19104  1  0
 20105  1  0
 21106  1  0
 21107  1  0
 22108  1  0
 22109  1  0
 23110  1  0
 23111  1  0
 24112  1  0
 25113  1  0
 26114  1  0
 27115  1  0
 28116  1  0
 29117  1  0
 30118  1  0
 31119  1  0
 32120  1  0
 34121  1  0
 35122  1  0
 36123  1  0
 37124  1  0
 38125  1  0
 39126  1  0
 40127  1  0
 41128  1  0
 42129  1  0
 47130  1  0
 49131  1  0
 50132  1  0
 51133  1  0
M  END
>  <ALOGPS_LOGP>  (1) 
2.99

>  <ALOGPS_LOGS>  (1) 
-3.63

>  <ALOGPS_SOLUBILITY>  (1) 
1.96e-01 g/l

>  <DATABASE_ID>  (1) 
DB06145

>  <DATABASE_NAME>  (1) 
drugbank

>  <DRUGBANK_ID>  (1) 
DB06145

>  <DRUG_GROUPS>  (1) 
approved

>  <EXACT_MASS>  (1) 
842.514005071

>  <FORMULA>  (1) 
C43H74N2O14

>  <GENERIC_NAME>  (1) 
Spiramycin

>  <INCHI_IDENTIFIER>  (1) 
InChI=1S/C43H74N2O14/c1-24-21-29(19-20-46)39(59-42-37(49)36(45(9)10)38(27(4)56-42)58-35-23-43(6,51)41(50)28(5)55-35)40(52-11)31(47)22-33(48)53-25(2)15-13-12-14-16-32(24)57-34-18-17-30(44(7)8)26(3)54-34/h12-14,16,20,24-32,34-42,47,49-51H,15,17-19,21-23H2,1-11H3/b13-12+,16-14+/t24-,25-,26+,27-,28+,29+,30+,31-,32+,34+,35+,36-,37-,38-,39+,40+,41+,42+,43-/m1/s1

>  <INCHI_KEY>  (1) 
ACTOXUHEUCPTEW-KWBWCIJSSA-N

>  <JCHEM_ACCEPTOR_COUNT>  (1) 
15

>  <JCHEM_ATOM_COUNT>  (1) 
133

>  <JCHEM_AVERAGE_POLARIZABILITY>  (1) 
91.6822972441645

>  <JCHEM_BIOAVAILABILITY>  (1) 
0

>  <JCHEM_DONOR_COUNT>  (1) 
4

>  <JCHEM_FORMAL_CHARGE>  (1) 
0

>  <JCHEM_GHOSE_FILTER>  (1) 
0

>  <JCHEM_IUPAC>  (1) 
2-[(4R,5S,6S,7R,9R,10R,11E,13E,16R)-6-{[(2S,3R,4R,5S,6R)-5-{[(2S,4R,5S,6S)-4,5-dihydroxy-4,6-dimethyloxan-2-yl]oxy}-4-(dimethylamino)-3-hydroxy-6-methyloxan-2-yl]oxy}-10-{[(2R,5S,6S)-5-(dimethylamino)-6-methyloxan-2-yl]oxy}-4-hydroxy-5-methoxy-9,16-dimethyl-2-oxo-1-oxacyclohexadeca-11,13-dien-7-yl]acetaldehyde

>  <JCHEM_LOGP>  (1) 
2.4961133790000014

>  <JCHEM_MDDR_LIKE_RULE>  (1) 
1

>  <JCHEM_NUMBER_OF_RINGS>  (1) 
4

>  <JCHEM_PHYSIOLOGICAL_CHARGE>  (1) 
2

>  <JCHEM_PKA>  (1) 
13.123805187320517

>  <JCHEM_PKA_STRONGEST_ACIDIC>  (1) 
12.533481415187062

>  <JCHEM_PKA_STRONGEST_BASIC>  (1) 
9.279546624831108

>  <JCHEM_POLAR_SURFACE_AREA>  (1) 
195.37999999999994

>  <JCHEM_REFRACTIVITY>  (1) 
219.24580000000003

>  <JCHEM_ROTATABLE_BOND_COUNT>  (1) 
11

>  <JCHEM_RULE_OF_FIVE>  (1) 
0

>  <JCHEM_TRADITIONAL_IUPAC>  (1) 
2-[(4R,5S,6S,7R,9R,10R,11E,13E,16R)-6-{[(2S,3R,4R,5S,6R)-5-{[(2S,4R,5S,6S)-4,5-dihydroxy-4,6-dimethyloxan-2-yl]oxy}-4-(dimethylamino)-3-hydroxy-6-methyloxan-2-yl]oxy}-10-{[(2R,5S,6S)-5-(dimethylamino)-6-methyloxan-2-yl]oxy}-4-hydroxy-5-methoxy-9,16-dimethyl-2-oxo-1-oxacyclohexadeca-11,13-dien-7-yl]acetaldehyde

>  <JCHEM_VEBER_RULE>  (1) 
0

>  <MOLECULAR_WEIGHT>  (1) 
843.065

>  <PRODUCTS>  (1) 
Rovamycine 250 Capsule 750000 Unit; Rovamycine 500 Capsule 1500000 Unit

>  <SMILES>  (1) 
[H]\C1=C(\[H])/C(/[H])=C([H])/[C@]([H])(O[C@@]2([H])CC[C@]([H])(N(C)C)[C@]([H])(C)O2)[C@]([H])(C)C[C@]([H])(CC=O)[C@]([H])(O[C@]2([H])O[C@]([H])(C)[C@@]([H])(O[C@@]3([H])C[C@@](C)(O)[C@@]([H])(O)[C@]([H])(C)O3)[C@]([H])(N(C)C)[C@@]2([H])O)[C@@]([H])(OC)[C@]([H])(O)CC(=O)O[C@]([H])(C)C1

>  <SYNONYMS>  (1) 
Demycarosylturimycin H; foromacidin A; Foromacidine A; Spiramycin 1; Spiramycin A

$$$$
