
     RDKit          2D

 52 53  0  0  1  0  0  0  0  0999 V2000
    3.5220    1.2375    0.0000 S   0  0  0  0  0  0  0  0  0  0  0  0
    4.9509   -2.0625    0.0000 O   0  0  0  0  0  0  0  0  0  0  0  0
    3.5220   -2.0625    0.0000 O   0  0  0  0  0  0  0  0  0  0  0  0
    4.3470    1.2375    0.0000 O   0  0  0  0  0  0  0  0  0  0  0  0
    2.6970    1.2375    0.0000 O   0  0  0  0  0  0  0  0  0  0  0  0
    7.1806   -0.0045    0.0000 N   0  0  0  0  0  0  0  0  0  0  0  0
    5.6655   -0.8250    0.0000 N   0  0  0  0  0  0  0  0  0  0  0  0
    2.0930    0.4125    0.0000 N   0  0  0  0  0  0  0  0  0  0  0  0
    7.0944   -0.8250    0.0000 C   0  0  0  0  0  0  0  0  0  0  0  0
    7.8482   -1.1606    0.0000 C   0  0  0  0  0  0  0  0  0  0  0  0
    8.4002   -0.5475    0.0000 C   0  0  0  0  0  0  0  0  0  0  0  0
    7.9877    0.1670    0.0000 C   0  0  0  0  0  0  0  0  0  0  0  0
    6.3799   -1.2375    0.0000 C   0  0  0  0  0  0  0  0  0  0  0  0
    6.5676    0.5476    0.0000 C   0  0  0  0  0  0  0  0  0  0  0  0
    6.7391    1.3545    0.0000 C   0  0  0  0  0  0  0  0  0  0  0  0
    4.9509   -1.2375    0.0000 C   0  0  0  0  0  0  0  0  0  0  0  0
    4.2365   -0.8250    0.0000 C   0  0  0  0  0  0  0  0  0  0  0  0
    3.5220    0.4125    0.0000 C   0  0  0  0  0  0  0  0  0  0  0  0
    4.2365    0.0000    0.0000 C   0  0  0  0  0  0  0  0  0  0  0  0
    3.5220   -1.2375    0.0000 C   0  0  0  0  0  0  0  0  0  0  0  0
    2.8075    0.0000    0.0000 C   0  0  0  0  0  0  0  0  0  0  0  0
    2.8075   -0.8250    0.0000 C   0  0  0  0  0  0  0  0  0  0  0  0
    3.5220    2.0625    0.0000 C   0  0  0  0  0  0  0  0  0  0  0  0
    4.2365    2.4751    0.0000 C   0  0  0  0  0  0  0  0  0  0  0  0
    2.8075   -2.4751    0.0000 C   0  0  0  0  0  0  0  0  0  0  0  0
    0.0000    0.0000    0.0000 H   0  0  0  0  0  0  0  0  0  0  0  0
    0.0000    0.0000    0.0000 H   0  0  0  0  0  0  0  0  0  0  0  0
    0.0000    0.0000    0.0000 H   0  0  0  0  0  0  0  0  0  0  0  0
    0.0000    0.0000    0.0000 H   0  0  0  0  0  0  0  0  0  0  0  0
    0.0000    0.0000    0.0000 H   0  0  0  0  0  0  0  0  0  0  0  0
    0.0000    0.0000    0.0000 H   0  0  0  0  0  0  0  0  0  0  0  0
    0.0000    0.0000    0.0000 H   0  0  0  0  0  0  0  0  0  0  0  0
    0.0000    0.0000    0.0000 H   0  0  0  0  0  0  0  0  0  0  0  0
    0.0000    0.0000    0.0000 H   0  0  0  0  0  0  0  0  0  0  0  0
    0.0000    0.0000    0.0000 H   0  0  0  0  0  0  0  0  0  0  0  0
    0.0000    0.0000    0.0000 H   0  0  0  0  0  0  0  0  0  0  0  0
    0.0000    0.0000    0.0000 H   0  0  0  0  0  0  0  0  0  0  0  0
    0.0000    0.0000    0.0000 H   0  0  0  0  0  0  0  0  0  0  0  0
    0.0000    0.0000    0.0000 H   0  0  0  0  0  0  0  0  0  0  0  0
    0.0000    0.0000    0.0000 H   0  0  0  0  0  0  0  0  0  0  0  0
    0.0000    0.0000    0.0000 H   0  0  0  0  0  0  0  0  0  0  0  0
    0.0000    0.0000    0.0000 H   0  0  0  0  0  0  0  0  0  0  0  0
    0.0000    0.0000    0.0000 H   0  0  0  0  0  0  0  0  0  0  0  0
    0.0000    0.0000    0.0000 H   0  0  0  0  0  0  0  0  0  0  0  0
    0.0000    0.0000    0.0000 H   0  0  0  0  0  0  0  0  0  0  0  0
    0.0000    0.0000    0.0000 H   0  0  0  0  0  0  0  0  0  0  0  0
    0.0000    0.0000    0.0000 H   0  0  0  0  0  0  0  0  0  0  0  0
    0.0000    0.0000    0.0000 H   0  0  0  0  0  0  0  0  0  0  0  0
    0.0000    0.0000    0.0000 H   0  0  0  0  0  0  0  0  0  0  0  0
    0.0000    0.0000    0.0000 H   0  0  0  0  0  0  0  0  0  0  0  0
    0.0000    0.0000    0.0000 H   0  0  0  0  0  0  0  0  0  0  0  0
    0.0000    0.0000    0.0000 H   0  0  0  0  0  0  0  0  0  0  0  0
  1  4  2  0
  1  5  2  0
  1 18  1  0
  1 23  1  0
  2 16  2  0
  3 20  1  0
  3 25  1  0
  6  9  1  0
  6 12  1  0
  6 14  1  0
  7 13  1  0
  7 16  1  0
  8 21  1  0
  9 10  1  0
  9 13  1  0
 10 11  1  0
 11 12  1  0
 14 15  1  0
 16 17  1  0
 17 19  1  0
 17 20  2  0
 18 19  2  0
 18 21  1  0
 20 22  1  0
 21 22  2  0
 23 24  1  0
  7 26  1  0
  8 27  1  0
  8 28  1  0
  9 29  1  0
 10 30  1  0
 10 31  1  0
 11 32  1  0
 11 33  1  0
 12 34  1  0
 12 35  1  0
 13 36  1  0
 13 37  1  0
 14 38  1  0
 14 39  1  0
 15 40  1  0
 15 41  1  0
 15 42  1  0
 19 43  1  0
 22 44  1  0
 23 45  1  0
 23 46  1  0
 24 47  1  0
 24 48  1  0
 24 49  1  0
 25 50  1  0
 25 51  1  0
 25 52  1  0
M  END
>  <ALOGPS_LOGP>  (1) 
1.50

>  <ALOGPS_LOGS>  (1) 
-3.10

>  <ALOGPS_SOLUBILITY>  (1) 
2.93e-01 g/l

>  <DATABASE_ID>  (1) 
DB06288

>  <DATABASE_NAME>  (1) 
drugbank

>  <DRUGBANK_ID>  (1) 
DB06288

>  <DRUG_GROUPS>  (1) 
approved; investigational

>  <EXACT_MASS>  (1) 
369.172227057

>  <FORMULA>  (1) 
C17H27N3O4S

>  <GENERIC_NAME>  (1) 
Amisulpride

>  <INCHI_IDENTIFIER>  (1) 
InChI=1S/C17H27N3O4S/c1-4-20-8-6-7-12(20)11-19-17(21)13-9-16(25(22,23)5-2)14(18)10-15(13)24-3/h9-10,12H,4-8,11,18H2,1-3H3,(H,19,21)

>  <INCHI_KEY>  (1) 
NTJOBXMMWNYJFB-UHFFFAOYSA-N

>  <INTERNATIONAL_BRANDS>  (1) 
Deniban; Solian

>  <JCHEM_ACCEPTOR_COUNT>  (1) 
6

>  <JCHEM_AVERAGE_POLARIZABILITY>  (1) 
39.82259907992241

>  <JCHEM_BIOAVAILABILITY>  (1) 
1

>  <JCHEM_DONOR_COUNT>  (1) 
2

>  <JCHEM_FORMAL_CHARGE>  (1) 
0

>  <JCHEM_GHOSE_FILTER>  (1) 
1

>  <JCHEM_IUPAC>  (1) 
4-amino-5-(ethanesulfonyl)-N-[(1-ethylpyrrolidin-2-yl)methyl]-2-methoxybenzamide

>  <JCHEM_LOGP>  (1) 
0.2512876846666668

>  <JCHEM_MDDR_LIKE_RULE>  (1) 
0

>  <JCHEM_NUMBER_OF_RINGS>  (1) 
2

>  <JCHEM_PHYSIOLOGICAL_CHARGE>  (1) 
1

>  <JCHEM_PKA>  (1) 
15.611193365980647

>  <JCHEM_PKA_STRONGEST_ACIDIC>  (1) 
14.032645979721941

>  <JCHEM_PKA_STRONGEST_BASIC>  (1) 
7.0515122111657424

>  <JCHEM_POLAR_SURFACE_AREA>  (1) 
101.73

>  <JCHEM_REFRACTIVITY>  (1) 
99.84480000000002

>  <JCHEM_ROTATABLE_BOND_COUNT>  (1) 
7

>  <JCHEM_RULE_OF_FIVE>  (1) 
1

>  <JCHEM_TRADITIONAL_IUPAC>  (1) 
amisulpride

>  <JCHEM_VEBER_RULE>  (1) 
0

>  <MOLECULAR_WEIGHT>  (1) 
369.479

>  <SMILES>  (1) 
CCN1CCCC1CNC(=O)C1=CC(=C(N)C=C1OC)S(=O)(=O)CC

>  <SYNONYMS>  (1) 
4-Amino-N-((1-ethyl-2-pyrrolidinyl)methyl)-5-(ethylsulfonyl)-2-methoxybenzamide; 4-Amino-N-((1-ethyl-2-pyrrolidinyl)methyl)-5-(ethylsulfonyl)-O-anisamide; Aminosultopride; Amisulprida; Amisulpridum

$$$$
