
     RDKit          2D

 52 57  0  0  0  0  0  0  0  0999 V2000
   -0.4474   -1.5630    0.0000 O   0  0  0  0  0  0  0  0  0  0  0  0
   -2.9843   -0.0278    0.0000 O   0  0  0  0  0  0  0  0  0  0  0  0
   -3.1850   -2.1573    0.0000 O   0  0  0  0  0  0  0  0  0  0  0  0
   -3.1850    2.0102    0.0000 O   0  0  0  0  0  0  0  0  0  0  0  0
    0.4240   -0.8985    0.0000 N   0  0  0  0  0  0  0  0  0  0  0  0
   -1.7194   -0.4860    0.0000 C   0  0  0  0  0  0  0  0  0  0  0  0
   -1.0049   -0.8985    0.0000 C   0  0  0  0  0  0  0  0  0  0  0  0
   -0.2904   -0.4860    0.0000 C   0  0  0  0  0  0  0  0  0  0  0  0
   -1.2427    0.1189    0.0000 C   0  0  0  0  0  0  0  0  0  0  0  0
   -0.0694    0.1189    0.0000 C   0  0  0  0  0  0  0  0  0  0  0  0
   -2.4338   -0.8985    0.0000 C   0  0  0  0  0  0  0  0  0  0  0  0
   -1.7194    0.3389    0.0000 C   0  0  0  0  0  0  0  0  0  0  0  0
    1.2532   -1.1531    0.0000 C   0  0  0  0  0  0  0  0  0  0  0  0
   -0.2904    0.3389    0.0000 C   0  0  0  0  0  0  0  0  0  0  0  0
   -1.0049   -1.7236    0.0000 C   0  0  0  0  0  0  0  0  0  0  0  0
    1.8882   -0.5622    0.0000 C   0  0  0  0  0  0  0  0  0  0  0  0
   -1.0049    0.7514    0.0000 C   0  0  0  0  0  0  0  0  0  0  0  0
    0.6181   -1.7440    0.0000 C   0  0  0  0  0  0  0  0  0  0  0  0
   -1.7194   -2.1360    0.0000 C   0  0  0  0  0  0  0  0  0  0  0  0
   -2.4338   -1.7236    0.0000 C   0  0  0  0  0  0  0  0  0  0  0  0
   -2.4338    0.7514    0.0000 C   0  0  0  0  0  0  0  0  0  0  0  0
    2.7337   -0.3680    0.0000 C   0  0  0  0  0  0  0  0  0  0  0  0
    2.1428    0.2670    0.0000 C   0  0  0  0  0  0  0  0  0  0  0  0
   -1.0049    1.5764    0.0000 C   0  0  0  0  0  0  0  0  0  0  0  0
   -2.4338    1.5764    0.0000 C   0  0  0  0  0  0  0  0  0  0  0  0
   -1.7194    1.9888    0.0000 C   0  0  0  0  0  0  0  0  0  0  0  0
    0.0000    0.0000    0.0000 H   0  0  0  0  0  0  0  0  0  0  0  0
    0.0000    0.0000    0.0000 H   0  0  0  0  0  0  0  0  0  0  0  0
    0.0000    0.0000    0.0000 H   0  0  0  0  0  0  0  0  0  0  0  0
    0.0000    0.0000    0.0000 H   0  0  0  0  0  0  0  0  0  0  0  0
    0.0000    0.0000    0.0000 H   0  0  0  0  0  0  0  0  0  0  0  0
    0.0000    0.0000    0.0000 H   0  0  0  0  0  0  0  0  0  0  0  0
    0.0000    0.0000    0.0000 H   0  0  0  0  0  0  0  0  0  0  0  0
    0.0000    0.0000    0.0000 H   0  0  0  0  0  0  0  0  0  0  0  0
    0.0000    0.0000    0.0000 H   0  0  0  0  0  0  0  0  0  0  0  0
    0.0000    0.0000    0.0000 H   0  0  0  0  0  0  0  0  0  0  0  0
    0.0000    0.0000    0.0000 H   0  0  0  0  0  0  0  0  0  0  0  0
    0.0000    0.0000    0.0000 H   0  0  0  0  0  0  0  0  0  0  0  0
    0.0000    0.0000    0.0000 H   0  0  0  0  0  0  0  0  0  0  0  0
    0.0000    0.0000    0.0000 H   0  0  0  0  0  0  0  0  0  0  0  0
    0.0000    0.0000    0.0000 H   0  0  0  0  0  0  0  0  0  0  0  0
    0.0000    0.0000    0.0000 H   0  0  0  0  0  0  0  0  0  0  0  0
    0.0000    0.0000    0.0000 H   0  0  0  0  0  0  0  0  0  0  0  0
    0.0000    0.0000    0.0000 H   0  0  0  0  0  0  0  0  0  0  0  0
    0.0000    0.0000    0.0000 H   0  0  0  0  0  0  0  0  0  0  0  0
    0.0000    0.0000    0.0000 H   0  0  0  0  0  0  0  0  0  0  0  0
    0.0000    0.0000    0.0000 H   0  0  0  0  0  0  0  0  0  0  0  0
    0.0000    0.0000    0.0000 H   0  0  0  0  0  0  0  0  0  0  0  0
    0.0000    0.0000    0.0000 H   0  0  0  0  0  0  0  0  0  0  0  0
    0.0000    0.0000    0.0000 H   0  0  0  0  0  0  0  0  0  0  0  0
    0.0000    0.0000    0.0000 H   0  0  0  0  0  0  0  0  0  0  0  0
    0.0000    0.0000    0.0000 H   0  0  0  0  0  0  0  0  0  0  0  0
  7  1  1  1
 11  2  1  0
  2 21  1  0
  3 20  2  0
  4 25  1  0
  5  8  1  0
  5 10  1  0
  5 13  1  6
  5 18  1  0
  6  7  1  0
  6  9  1  1
  6 11  1  0
  6 12  1  0
  7  8  1  0
  7 15  1  0
  8 14  1  0
  9 10  1  0
 11 20  1  0
 12 17  2  0
 12 21  1  0
 13 16  1  0
 14 17  1  0
 15 19  1  0
 16 22  1  0
 16 23  1  0
 17 24  1  0
 19 20  1  0
 21 25  2  0
 22 23  1  0
 24 26  2  0
 25 26  1  0
  1 27  1  0
  4 28  1  0
  8 29  1  6
  9 30  1  0
  9 31  1  0
 10 32  1  0
 10 33  1  0
 11 34  1  1
 13 35  1  0
 13 36  1  0
 14 37  1  0
 14 38  1  0
 15 39  1  0
 15 40  1  0
 16 41  1  0
 18 42  1  0
 18 43  1  0
 18 44  1  0
 19 45  1  0
 19 46  1  0
 22 47  1  0
 22 48  1  0
 23 49  1  0
 23 50  1  0
 24 51  1  0
 26 52  1  0
M  CHG  1   5   1
M  END
>  <ALOGPS_LOGP>  (1) 
0.59

>  <ALOGPS_LOGS>  (1) 
-4.73

>  <ALOGPS_SOLUBILITY>  (1) 
7.29e-03 g/l

>  <DATABASE_ID>  (1) 
DB06800

>  <DATABASE_NAME>  (1) 
drugbank

>  <DRUGBANK_ID>  (1) 
DB06800

>  <DRUG_GROUPS>  (1) 
approved

>  <EXACT_MASS>  (1) 
356.185634741

>  <FORMULA>  (1) 
C21H26NO4

>  <GENERIC_NAME>  (1) 
Methylnaltrexone

>  <INCHI_IDENTIFIER>  (1) 
InChI=1S/C21H25NO4/c1-22(11-12-2-3-12)9-8-20-17-13-4-5-14(23)18(17)26-19(20)15(24)6-7-21(20,25)16(22)10-13/h4-5,12,16,19,25H,2-3,6-11H2,1H3/p+1/t16-,19+,20+,21-,22-/m1/s1

>  <INCHI_KEY>  (1) 
JVLBPIPGETUEET-WIXLDOGYSA-O

>  <JCHEM_ACCEPTOR_COUNT>  (1) 
4

>  <JCHEM_ATOM_COUNT>  (1) 
52

>  <JCHEM_AVERAGE_POLARIZABILITY>  (1) 
38.04137133309816

>  <JCHEM_BIOAVAILABILITY>  (1) 
1

>  <JCHEM_DONOR_COUNT>  (1) 
2

>  <JCHEM_FORMAL_CHARGE>  (1) 
1

>  <JCHEM_GHOSE_FILTER>  (1) 
0

>  <JCHEM_IUPAC>  (1) 
(1S,4R,5R,13R,17S)-4-(cyclopropylmethyl)-10,17-dihydroxy-4-methyl-14-oxo-12-oxa-4-azapentacyclo[9.6.1.0¹,¹³.0⁵,¹⁷.0⁷,¹⁸]octadeca-7(18),8,10-trien-4-ium

>  <JCHEM_LOGP>  (1) 
-2.492788006471746

>  <JCHEM_MDDR_LIKE_RULE>  (1) 
0

>  <JCHEM_NUMBER_OF_RINGS>  (1) 
6

>  <JCHEM_PHYSIOLOGICAL_CHARGE>  (1) 
1

>  <JCHEM_PKA>  (1) 
12.413183016463588

>  <JCHEM_PKA_STRONGEST_ACIDIC>  (1) 
9.903289117194666

>  <JCHEM_PKA_STRONGEST_BASIC>  (1) 
-3.938474570650043

>  <JCHEM_POLAR_SURFACE_AREA>  (1) 
66.76

>  <JCHEM_REFRACTIVITY>  (1) 
107.41510000000001

>  <JCHEM_ROTATABLE_BOND_COUNT>  (1) 
2

>  <JCHEM_RULE_OF_FIVE>  (1) 
1

>  <JCHEM_TRADITIONAL_IUPAC>  (1) 
(1S,4R,5R,13R,17S)-4-(cyclopropylmethyl)-10,17-dihydroxy-4-methyl-14-oxo-12-oxa-4-azapentacyclo[9.6.1.0¹,¹³.0⁵,¹⁷.0⁷,¹⁸]octadeca-7(18),8,10-trien-4-ium

>  <JCHEM_VEBER_RULE>  (1) 
0

>  <MOLECULAR_WEIGHT>  (1) 
356.441

>  <PRODUCTS>  (1) 
Relistor

>  <SALTS>  (1) 
Methylnaltrexone bromide

>  <SMILES>  (1) 
C[N@+]1(CC2CC2)CC[C@]23[C@H]4OC5=C(O)C=CC(C[C@@H]1[C@]2(O)CCC4=O)=C35

>  <SYNONYMS>  (1) 
MNTX

$$$$
