
     RDKit          2D

 51 54  0  0  0  0  0  0  0  0999 V2000
    3.7293   -1.1447    0.0000 Cl  0  0  0  0  0  0  0  0  0  0  0  0
    8.9643   -0.8545    0.0000 Cl  0  0  0  0  0  0  0  0  0  0  0  0
    5.1583   -3.6198    0.0000 Cl  0  0  0  0  0  0  0  0  0  0  0  0
    4.5965    2.3710    0.0000 O   0  0  0  0  0  0  0  0  0  0  0  0
    2.9555    2.1986    0.0000 N   0  0  0  0  0  0  0  0  0  0  0  0
    3.4404    1.5312    0.0000 N   0  0  0  0  0  0  0  0  0  0  0  0
    5.1583   -0.3197    0.0000 N   0  0  0  0  0  0  0  0  0  0  0  0
    4.4909    0.1653    0.0000 N   0  0  0  0  0  0  0  0  0  0  0  0
    1.9856    3.5335    0.0000 C   0  0  0  0  0  0  0  0  0  0  0  0
    1.6500    2.7798    0.0000 C   0  0  0  0  0  0  0  0  0  0  0  0
    2.8061    3.6198    0.0000 C   0  0  0  0  0  0  0  0  0  0  0  0
    2.1350    2.1124    0.0000 C   0  0  0  0  0  0  0  0  0  0  0  0
    3.2910    2.9522    0.0000 C   0  0  0  0  0  0  0  0  0  0  0  0
    4.2609    1.6174    0.0000 C   0  0  0  0  0  0  0  0  0  0  0  0
    4.7458    0.9499    0.0000 C   0  0  0  0  0  0  0  0  0  0  0  0
    5.5709    0.9499    0.0000 C   0  0  0  0  0  0  0  0  0  0  0  0
    5.8258    0.1653    0.0000 C   0  0  0  0  0  0  0  0  0  0  0  0
    6.6105   -0.0897    0.0000 C   0  0  0  0  0  0  0  0  0  0  0  0
    6.0558    1.6174    0.0000 C   0  0  0  0  0  0  0  0  0  0  0  0
    5.1583   -1.1447    0.0000 C   0  0  0  0  0  0  0  0  0  0  0  0
    7.2235    0.4623    0.0000 C   0  0  0  0  0  0  0  0  0  0  0  0
    6.7820   -0.8966    0.0000 C   0  0  0  0  0  0  0  0  0  0  0  0
    4.4439   -1.5572    0.0000 C   0  0  0  0  0  0  0  0  0  0  0  0
    5.8728   -1.5572    0.0000 C   0  0  0  0  0  0  0  0  0  0  0  0
    8.0082    0.2074    0.0000 C   0  0  0  0  0  0  0  0  0  0  0  0
    7.5666   -1.1516    0.0000 C   0  0  0  0  0  0  0  0  0  0  0  0
    4.4439   -2.3822    0.0000 C   0  0  0  0  0  0  0  0  0  0  0  0
    5.8728   -2.3822    0.0000 C   0  0  0  0  0  0  0  0  0  0  0  0
    8.1797   -0.5995    0.0000 C   0  0  0  0  0  0  0  0  0  0  0  0
    5.1583   -2.7947    0.0000 C   0  0  0  0  0  0  0  0  0  0  0  0
    0.0000    0.0000    0.0000 H   0  0  0  0  0  0  0  0  0  0  0  0
    0.0000    0.0000    0.0000 H   0  0  0  0  0  0  0  0  0  0  0  0
    0.0000    0.0000    0.0000 H   0  0  0  0  0  0  0  0  0  0  0  0
    0.0000    0.0000    0.0000 H   0  0  0  0  0  0  0  0  0  0  0  0
    0.0000    0.0000    0.0000 H   0  0  0  0  0  0  0  0  0  0  0  0
    0.0000    0.0000    0.0000 H   0  0  0  0  0  0  0  0  0  0  0  0
    0.0000    0.0000    0.0000 H   0  0  0  0  0  0  0  0  0  0  0  0
    0.0000    0.0000    0.0000 H   0  0  0  0  0  0  0  0  0  0  0  0
    0.0000    0.0000    0.0000 H   0  0  0  0  0  0  0  0  0  0  0  0
    0.0000    0.0000    0.0000 H   0  0  0  0  0  0  0  0  0  0  0  0
    0.0000    0.0000    0.0000 H   0  0  0  0  0  0  0  0  0  0  0  0
    0.0000    0.0000    0.0000 H   0  0  0  0  0  0  0  0  0  0  0  0
    0.0000    0.0000    0.0000 H   0  0  0  0  0  0  0  0  0  0  0  0
    0.0000    0.0000    0.0000 H   0  0  0  0  0  0  0  0  0  0  0  0
    0.0000    0.0000    0.0000 H   0  0  0  0  0  0  0  0  0  0  0  0
    0.0000    0.0000    0.0000 H   0  0  0  0  0  0  0  0  0  0  0  0
    0.0000    0.0000    0.0000 H   0  0  0  0  0  0  0  0  0  0  0  0
    0.0000    0.0000    0.0000 H   0  0  0  0  0  0  0  0  0  0  0  0
    0.0000    0.0000    0.0000 H   0  0  0  0  0  0  0  0  0  0  0  0
    0.0000    0.0000    0.0000 H   0  0  0  0  0  0  0  0  0  0  0  0
    0.0000    0.0000    0.0000 H   0  0  0  0  0  0  0  0  0  0  0  0
  1 23  1  0
  2 29  1  0
  3 30  1  0
  4 14  2  0
  5  6  1  0
  5 12  1  0
  5 13  1  0
  6 14  1  0
  7  8  1  0
  7 17  1  0
  7 20  1  0
  8 15  2  0
  9 10  1  0
  9 11  1  0
 10 12  1  0
 11 13  1  0
 14 15  1  0
 15 16  1  0
 16 17  2  0
 16 19  1  0
 17 18  1  0
 18 21  2  0
 18 22  1  0
 20 23  2  0
 20 24  1  0
 21 25  1  0
 22 26  2  0
 23 27  1  0
 24 28  2  0
 25 29  2  0
 26 29  1  0
 27 30  2  0
 28 30  1  0
  6 31  1  0
  9 32  1  0
  9 33  1  0
 10 34  1  0
 10 35  1  0
 11 36  1  0
 11 37  1  0
 12 38  1  0
 12 39  1  0
 13 40  1  0
 13 41  1  0
 19 42  1  0
 19 43  1  0
 19 44  1  0
 21 45  1  0
 22 46  1  0
 24 47  1  0
 25 48  1  0
 26 49  1  0
 27 50  1  0
 28 51  1  0
M  END
>  <ALOGPS_LOGP>  (1) 
5.47

>  <ALOGPS_LOGS>  (1) 
-5.36

>  <ALOGPS_SOLUBILITY>  (1) 
2.00e-03 g/l

>  <DATABASE_ID>  (1) 
DB06155

>  <DATABASE_NAME>  (1) 
drugbank

>  <DRUGBANK_ID>  (1) 
DB06155

>  <DRUG_GROUPS>  (1) 
approved; investigational

>  <EXACT_MASS>  (1) 
462.078094435

>  <FORMULA>  (1) 
C22H21Cl3N4O

>  <GENERIC_NAME>  (1) 
Rimonabant

>  <INCHI_IDENTIFIER>  (1) 
InChI=1S/C22H21Cl3N4O/c1-14-20(22(30)27-28-11-3-2-4-12-28)26-29(19-10-9-17(24)13-18(19)25)21(14)15-5-7-16(23)8-6-15/h5-10,13H,2-4,11-12H2,1H3,(H,27,30)

>  <INCHI_KEY>  (1) 
JZCPYUJPEARBJL-UHFFFAOYSA-N

>  <INTERNATIONAL_BRANDS>  (1) 
Acomplia; Rimoslim; Slimona; Zimulti

>  <JCHEM_ACCEPTOR_COUNT>  (1) 
3

>  <JCHEM_AVERAGE_POLARIZABILITY>  (1) 
47.96057719350162

>  <JCHEM_BIOAVAILABILITY>  (1) 
1

>  <JCHEM_DONOR_COUNT>  (1) 
1

>  <JCHEM_FORMAL_CHARGE>  (1) 
0

>  <JCHEM_GHOSE_FILTER>  (1) 
0

>  <JCHEM_IUPAC>  (1) 
5-(4-chlorophenyl)-1-(2,4-dichlorophenyl)-4-methyl-N-(piperidin-1-yl)-1H-pyrazole-3-carboxamide

>  <JCHEM_LOGP>  (1) 
5.907997435000002

>  <JCHEM_MDDR_LIKE_RULE>  (1) 
0

>  <JCHEM_NUMBER_OF_RINGS>  (1) 
4

>  <JCHEM_PHYSIOLOGICAL_CHARGE>  (1) 
0

>  <JCHEM_PKA_STRONGEST_ACIDIC>  (1) 
12.421861716989987

>  <JCHEM_PKA_STRONGEST_BASIC>  (1) 
1.6813636475741176

>  <JCHEM_POLAR_SURFACE_AREA>  (1) 
50.160000000000004

>  <JCHEM_REFRACTIVITY>  (1) 
122.83080000000001

>  <JCHEM_ROTATABLE_BOND_COUNT>  (1) 
4

>  <JCHEM_RULE_OF_FIVE>  (1) 
0

>  <JCHEM_TRADITIONAL_IUPAC>  (1) 
rimonabant

>  <JCHEM_VEBER_RULE>  (1) 
0

>  <MOLECULAR_WEIGHT>  (1) 
463.787

>  <PRODUCTS>  (1) 
Acomplia; Zimulti

>  <SALTS>  (1) 
Rimonabant hydrochloride

>  <SMILES>  (1) 
CC1=C(N(N=C1C(=O)NN1CCCCC1)C1=C(Cl)C=C(Cl)C=C1)C1=CC=C(Cl)C=C1

$$$$
