
     RDKit          2D

461464  0  0  0  0  0  0  0  0999 V2000
    0.8495    5.8882    0.0000 C   0  0  0  0  0  0  0  0  0  0  0  0
    1.6697    5.8882    0.0000 C   0  0  0  0  0  0  0  0  0  0  0  0
    0.4394    6.6205    0.0000 O   0  0  0  0  0  0  0  0  0  0  0  0
    0.4394    5.1851    0.0000 N   0  0  0  0  0  0  0  0  0  0  0  0
    2.1092    5.1851    0.0000 N   0  0  0  0  0  0  0  0  0  0  0  0
    2.1092    6.6205    0.0000 C   0  0  0  0  0  0  0  0  0  0  0  0
    1.6697    7.3236    0.0000 C   0  0  0  0  0  0  0  0  0  0  0  0
    2.1092    8.0559    0.0000 C   0  0  0  0  0  0  0  0  0  0  0  0
    1.6697    8.7591    0.0000 N   0  0  0  0  0  0  0  0  0  0  0  0
    2.9294    8.0559    0.0000 O   0  0  0  0  0  0  0  0  0  0  0  0
    2.9294    5.1851    0.0000 C   0  0  0  0  0  0  0  0  0  0  0  0
    3.3396    4.4527    0.0000 C   0  0  0  0  0  0  0  0  0  0  0  0
    3.3396    5.8882    0.0000 O   0  0  0  0  0  0  0  0  0  0  0  0
    4.1598    4.4527    0.0000 C   0  0  0  0  0  0  0  0  0  0  0  0
    2.9294    3.7497    0.0000 N   0  0  0  0  0  0  0  0  0  0  0  0
    4.5699    5.1851    0.0000 C   0  0  0  0  0  0  0  0  0  0  0  0
    4.1598    5.8882    0.0000 C   0  0  0  0  0  0  0  0  0  0  0  0
    3.3396    3.0173    0.0000 C   0  0  0  0  0  0  0  0  0  0  0  0
    2.9294    2.3142    0.0000 C   0  0  0  0  0  0  0  0  0  0  0  0
    4.1598    3.0173    0.0000 O   0  0  0  0  0  0  0  0  0  0  0  0
    3.3396    1.5818    0.0000 C   0  0  0  0  0  0  0  0  0  0  0  0
    2.1092    2.3142    0.0000 N   0  0  0  0  0  0  0  0  0  0  0  0
    1.6697    1.5818    0.0000 C   0  0  0  0  0  0  0  0  0  0  0  0
    2.1092    0.8788    0.0000 C   0  0  0  0  0  0  0  0  0  0  0  0
    0.8495    1.5818    0.0000 O   0  0  0  0  0  0  0  0  0  0  0  0
    1.6697    0.1465    0.0000 C   0  0  0  0  0  0  0  0  0  0  0  0
    2.9294    0.8788    0.0000 N   0  0  0  0  0  0  0  0  0  0  0  0
    0.8495    0.1465    0.0000 C   0  0  0  0  0  0  0  0  0  0  0  0
    0.4394   -0.5566    0.0000 C   0  0  0  0  0  0  0  0  0  0  0  0
    0.4394    0.8788    0.0000 C   0  0  0  0  0  0  0  0  0  0  0  0
    3.5153    0.2929    0.0000 C   0  0  0  0  0  0  0  0  0  0  0  0
    3.5153   -0.5272    0.0000 C   0  0  0  0  0  0  0  0  0  0  0  0
    4.2769    0.6151    0.0000 O   0  0  0  0  0  0  0  0  0  0  0  0
    2.7830   -0.9374    0.0000 C   0  0  0  0  0  0  0  0  0  0  0  0
    4.2184   -0.9374    0.0000 N   0  0  0  0  0  0  0  0  0  0  0  0
    2.5779   -1.7576    0.0000 C   0  0  0  0  0  0  0  0  0  0  0  0
    1.7869   -1.9627    0.0000 C   0  0  0  0  0  0  0  0  0  0  0  0
    1.0546   -1.5526    0.0000 N   0  0  0  0  0  0  0  0  0  0  0  0
    0.2636   -1.7576    0.0000 C   0  0  0  0  0  0  0  0  0  0  0  0
   -0.3222   -1.1717    0.0000 N   0  0  0  0  0  0  0  0  0  0  0  0
    0.0586   -2.5779    0.0000 N   0  0  0  0  0  0  0  0  0  0  0  0
    4.0133   -1.7576    0.0000 C   0  0  0  0  0  0  0  0  0  0  0  0
    4.5992   -2.3435    0.0000 C   0  0  0  0  0  0  0  0  0  0  0  0
    3.2223   -1.9627    0.0000 O   0  0  0  0  0  0  0  0  0  0  0  0
    4.3941   -3.1344    0.0000 C   0  0  0  0  0  0  0  0  0  0  0  0
    5.3902   -2.1092    0.0000 N   0  0  0  0  0  0  0  0  0  0  0  0
    3.5739   -3.3396    0.0000 C   0  0  0  0  0  0  0  0  0  0  0  0
    4.9800   -3.7203    0.0000 O   0  0  0  0  0  0  0  0  0  0  0  0
    5.6245   -1.3182    0.0000 C   0  0  0  0  0  0  0  0  0  0  0  0
    6.4154   -1.1132    0.0000 C   0  0  0  0  0  0  0  0  0  0  0  0
    5.0386   -0.7324    0.0000 O   0  0  0  0  0  0  0  0  0  0  0  0
    6.6205   -0.3222    0.0000 N   0  0  0  0  0  0  0  0  0  0  0  0
    7.0013   -1.6991    0.0000 C   0  0  0  0  0  0  0  0  0  0  0  0
    7.8216   -1.6991    0.0000 C   0  0  0  0  0  0  0  0  0  0  0  0
    8.2317   -2.4021    0.0000 C   0  0  0  0  0  0  0  0  0  0  0  0
    9.0813   -2.4021    0.0000 C   0  0  0  0  0  0  0  0  0  0  0  0
    9.4914   -1.6991    0.0000 C   0  0  0  0  0  0  0  0  0  0  0  0
    9.0813   -0.9667    0.0000 C   0  0  0  0  0  0  0  0  0  0  0  0
    8.2317   -0.9667    0.0000 C   0  0  0  0  0  0  0  0  0  0  0  0
   10.3117   -1.6991    0.0000 O   0  0  0  0  0  0  0  0  0  0  0  0
    6.0346    0.2636    0.0000 C   0  0  0  0  0  0  0  0  0  0  0  0
    6.2397    1.0838    0.0000 C   0  0  0  0  0  0  0  0  0  0  0  0
    5.2437    0.0586    0.0000 O   0  0  0  0  0  0  0  0  0  0  0  0
    5.6831    1.6697    0.0000 C   0  0  0  0  0  0  0  0  0  0  0  0
    7.0599    1.2889    0.0000 N   0  0  0  0  0  0  0  0  0  0  0  0
    5.8882    2.4607    0.0000 C   0  0  0  0  0  0  0  0  0  0  0  0
    5.3023    3.0466    0.0000 O   0  0  0  0  0  0  0  0  0  0  0  0
    6.6791    2.6658    0.0000 N   0  0  0  0  0  0  0  0  0  0  0  0
    7.6458    0.7030    0.0000 C   0  0  0  0  0  0  0  0  0  0  0  0
    8.4368    0.9080    0.0000 C   0  0  0  0  0  0  0  0  0  0  0  0
    7.4115   -0.0878    0.0000 O   0  0  0  0  0  0  0  0  0  0  0  0
    9.0227    0.3222    0.0000 C   0  0  0  0  0  0  0  0  0  0  0  0
    8.6418    1.7283    0.0000 N   0  0  0  0  0  0  0  0  0  0  0  0
    9.8136    0.5566    0.0000 C   0  0  0  0  0  0  0  0  0  0  0  0
   10.3996   -0.0292    0.0000 O   0  0  0  0  0  0  0  0  0  0  0  0
   10.0480    1.3475    0.0000 O   0  0  0  0  0  0  0  0  0  0  0  0
    8.0559    2.3142    0.0000 C   0  0  0  0  0  0  0  0  0  0  0  0
    8.2903    3.1052    0.0000 C   0  0  0  0  0  0  0  0  0  0  0  0
    7.2650    2.0799    0.0000 O   0  0  0  0  0  0  0  0  0  0  0  0
    7.7045    3.6911    0.0000 N   0  0  0  0  0  0  0  0  0  0  0  0
    9.0813    3.3102    0.0000 C   0  0  0  0  0  0  0  0  0  0  0  0
    9.2863    4.1305    0.0000 C   0  0  0  0  0  0  0  0  0  0  0  0
    9.6672    2.7243    0.0000 O   0  0  0  0  0  0  0  0  0  0  0  0
    7.9095    4.4820    0.0000 C   0  0  0  0  0  0  0  0  0  0  0  0
    7.3236    5.0679    0.0000 C   0  0  0  0  0  0  0  0  0  0  0  0
    8.7004    4.7164    0.0000 O   0  0  0  0  0  0  0  0  0  0  0  0
    7.5287    5.8882    0.0000 N   0  0  0  0  0  0  0  0  0  0  0  0
    6.5327    4.8628    0.0000 C   0  0  0  0  0  0  0  0  0  0  0  0
    5.9467    5.4487    0.0000 C   0  0  0  0  0  0  0  0  0  0  0  0
    6.1519    6.2397    0.0000 C   0  0  0  0  0  0  0  0  0  0  0  0
    5.5660    6.8256    0.0000 C   0  0  0  0  0  0  0  0  0  0  0  0
    4.7749    6.6205    0.0000 C   0  0  0  0  0  0  0  0  0  0  0  0
    4.5406    5.8295    0.0000 C   0  0  0  0  0  0  0  0  0  0  0  0
    5.1265    5.2437    0.0000 C   0  0  0  0  0  0  0  0  0  0  0  0
    4.3941    6.7084    0.0000 C   0  0  0  0  0  0  0  0  0  0  0  0
    3.9547    7.4115    0.0000 N   0  0  0  0  0  0  0  0  0  0  0  0
    8.3489    6.0932    0.0000 C   0  0  0  0  0  0  0  0  0  0  0  0
    8.5539    6.8842    0.0000 C   0  0  0  0  0  0  0  0  0  0  0  0
    8.9348    5.5073    0.0000 O   0  0  0  0  0  0  0  0  0  0  0  0
    9.3450    7.1186    0.0000 N   0  0  0  0  0  0  0  0  0  0  0  0
    7.9680    7.4700    0.0000 C   0  0  0  0  0  0  0  0  0  0  0  0
    8.1732    8.2610    0.0000 C   0  0  0  0  0  0  0  0  0  0  0  0
    7.1771    7.2650    0.0000 C   0  0  0  0  0  0  0  0  0  0  0  0
    9.5793    7.9095    0.0000 C   0  0  0  0  0  0  0  0  0  0  0  0
   10.3702    8.1146    0.0000 C   0  0  0  0  0  0  0  0  0  0  0  0
    8.9934    8.4954    0.0000 O   0  0  0  0  0  0  0  0  0  0  0  0
   10.5753    8.9055    0.0000 C   0  0  0  0  0  0  0  0  0  0  0  0
   10.9561    7.5287    0.0000 N   0  0  0  0  0  0  0  0  0  0  0  0
   11.7470    7.7337    0.0000 C   0  0  0  0  0  0  0  0  0  0  0  0
   12.3330    7.1478    0.0000 C   0  0  0  0  0  0  0  0  0  0  0  0
   11.9814    8.5539    0.0000 O   0  0  0  0  0  0  0  0  0  0  0  0
   13.1532    7.3822    0.0000 C   0  0  0  0  0  0  0  0  0  0  0  0
   12.1279    6.3569    0.0000 N   0  0  0  0  0  0  0  0  0  0  0  0
   13.3583    8.1732    0.0000 C   0  0  0  0  0  0  0  0  0  0  0  0
   14.1492    8.3782    0.0000 O   0  0  0  0  0  0  0  0  0  0  0  0
   12.7724    8.7591    0.0000 O   0  0  0  0  0  0  0  0  0  0  0  0
   12.7138    5.7710    0.0000 C   0  0  0  0  0  0  0  0  0  0  0  0
   12.5087    4.9800    0.0000 C   0  0  0  0  0  0  0  0  0  0  0  0
   13.5048    6.0053    0.0000 O   0  0  0  0  0  0  0  0  0  0  0  0
   13.0946    4.3941    0.0000 C   0  0  0  0  0  0  0  0  0  0  0  0
   11.6885    4.7749    0.0000 N   0  0  0  0  0  0  0  0  0  0  0  0
   11.4835    3.9547    0.0000 C   0  0  0  0  0  0  0  0  0  0  0  0
   10.6925    3.7497    0.0000 O   0  0  0  0  0  0  0  0  0  0  0  0
   12.0693    3.3688    0.0000 C   0  0  0  0  0  0  0  0  0  0  0  0
   11.8643    2.5779    0.0000 N   0  0  0  0  0  0  0  0  0  0  0  0
   12.8603    3.6032    0.0000 C   0  0  0  0  0  0  0  0  0  0  0  0
   13.4462    3.0173    0.0000 C   0  0  0  0  0  0  0  0  0  0  0  0
   13.3290    2.1971    0.0000 N   0  0  0  0  0  0  0  0  0  0  0  0
   14.0613    1.8162    0.0000 C   0  0  0  0  0  0  0  0  0  0  0  0
   14.6472    2.4021    0.0000 N   0  0  0  0  0  0  0  0  0  0  0  0
   14.2665    3.1344    0.0000 C   0  0  0  0  0  0  0  0  0  0  0  0
   13.8856    4.5992    0.0000 O   0  0  0  0  0  0  0  0  0  0  0  0
   -0.3808    5.1851    0.0000 C   0  0  0  0  0  0  0  0  0  0  0  0
   -0.7909    4.4527    0.0000 C   0  0  0  0  0  0  0  0  0  0  0  0
   -0.7909    5.8882    0.0000 C   0  0  0  0  0  0  0  0  0  0  0  0
   -0.3808    6.6205    0.0000 C   0  0  0  0  0  0  0  0  0  0  0  0
   -0.7909    7.3236    0.0000 S   0  0  0  0  0  0  0  0  0  0  0  0
   -1.6405    7.3236    0.0000 C   0  0  0  0  0  0  0  0  0  0  0  0
   -1.6405    4.4527    0.0000 N   0  0  0  0  0  0  0  0  0  0  0  0
   -0.3808    3.7497    0.0000 O   0  0  0  0  0  0  0  0  0  0  0  0
   -2.0506    5.1851    0.0000 C   0  0  0  0  0  0  0  0  0  0  0  0
   -2.8709    5.1851    0.0000 C   0  0  0  0  0  0  0  0  0  0  0  0
   -1.6405    5.8882    0.0000 C   0  0  0  0  0  0  0  0  0  0  0  0
   -3.2810    5.8882    0.0000 O   0  0  0  0  0  0  0  0  0  0  0  0
   -3.2810    4.4527    0.0000 N   0  0  0  0  0  0  0  0  0  0  0  0
   -4.1012    4.4527    0.0000 C   0  0  0  0  0  0  0  0  0  0  0  0
   -4.5406    3.7497    0.0000 C   0  0  0  0  0  0  0  0  0  0  0  0
   -4.5406    5.1851    0.0000 C   0  0  0  0  0  0  0  0  0  0  0  0
   -5.3608    5.1851    0.0000 C   0  0  0  0  0  0  0  0  0  0  0  0
   -4.1012    5.8882    0.0000 C   0  0  0  0  0  0  0  0  0  0  0  0
   -5.3608    3.7497    0.0000 O   0  0  0  0  0  0  0  0  0  0  0  0
   -4.1012    3.0173    0.0000 N   0  0  0  0  0  0  0  0  0  0  0  0
   -4.5406    2.3142    0.0000 C   0  0  0  0  0  0  0  0  0  0  0  0
   -4.1012    1.5818    0.0000 C   0  0  0  0  0  0  0  0  0  0  0  0
   -5.3608    2.3142    0.0000 C   0  0  0  0  0  0  0  0  0  0  0  0
   -5.7710    3.0173    0.0000 C   0  0  0  0  0  0  0  0  0  0  0  0
   -6.5912    3.0173    0.0000 C   0  0  0  0  0  0  0  0  0  0  0  0
   -7.0013    3.7497    0.0000 C   0  0  0  0  0  0  0  0  0  0  0  0
   -7.8509    3.7497    0.0000 N   0  0  0  0  0  0  0  0  0  0  0  0
   -4.5406    0.8788    0.0000 N   0  0  0  0  0  0  0  0  0  0  0  0
   -3.2810    1.5818    0.0000 O   0  0  0  0  0  0  0  0  0  0  0  0
   -5.3608    0.8788    0.0000 C   0  0  0  0  0  0  0  0  0  0  0  0
   -5.7710    0.1465    0.0000 C   0  0  0  0  0  0  0  0  0  0  0  0
   -5.7710    1.5818    0.0000 C   0  0  0  0  0  0  0  0  0  0  0  0
   -6.5912    0.1465    0.0000 O   0  0  0  0  0  0  0  0  0  0  0  0
   -5.3608   -0.5566    0.0000 N   0  0  0  0  0  0  0  0  0  0  0  0
   -6.5912    1.5818    0.0000 C   0  0  0  0  0  0  0  0  0  0  0  0
   -7.0013    0.8788    0.0000 C   0  0  0  0  0  0  0  0  0  0  0  0
   -7.8509    0.8788    0.0000 C   0  0  0  0  0  0  0  0  0  0  0  0
   -8.2610    0.1465    0.0000 N   0  0  0  0  0  0  0  0  0  0  0  0
   -5.7710   -1.2889    0.0000 C   0  0  0  0  0  0  0  0  0  0  0  0
   -6.5912   -1.2889    0.0000 C   0  0  0  0  0  0  0  0  0  0  0  0
   -7.0013   -1.9920    0.0000 N   0  0  0  0  0  0  0  0  0  0  0  0
   -7.0013   -0.5566    0.0000 O   0  0  0  0  0  0  0  0  0  0  0  0
   -7.8509   -1.9920    0.0000 C   0  0  0  0  0  0  0  0  0  0  0  0
   -8.2610   -1.2889    0.0000 C   0  0  0  0  0  0  0  0  0  0  0  0
   -9.0813   -1.2889    0.0000 C   0  0  0  0  0  0  0  0  0  0  0  0
   -9.4914   -0.5566    0.0000 C   0  0  0  0  0  0  0  0  0  0  0  0
   -9.4914   -1.9920    0.0000 C   0  0  0  0  0  0  0  0  0  0  0  0
   -5.3608   -1.9920    0.0000 C   0  0  0  0  0  0  0  0  0  0  0  0
   -5.7710   -2.7243    0.0000 C   0  0  0  0  0  0  0  0  0  0  0  0
   -6.5912   -2.7243    0.0000 C   0  0  0  0  0  0  0  0  0  0  0  0
   -7.0013   -3.4274    0.0000 C   0  0  0  0  0  0  0  0  0  0  0  0
   -6.5912   -4.1305    0.0000 C   0  0  0  0  0  0  0  0  0  0  0  0
   -5.7710   -4.1305    0.0000 C   0  0  0  0  0  0  0  0  0  0  0  0
   -5.3608   -3.4274    0.0000 C   0  0  0  0  0  0  0  0  0  0  0  0
   -7.0013   -4.8628    0.0000 O   0  0  0  0  0  0  0  0  0  0  0  0
   -8.2610   -2.7243    0.0000 C   0  0  0  0  0  0  0  0  0  0  0  0
   -9.7258   -2.7536    0.0000 N   0  0  0  0  0  0  0  0  0  0  0  0
   -7.8509   -3.4274    0.0000 O   0  0  0  0  0  0  0  0  0  0  0  0
  -10.3117   -2.1677    0.0000 C   0  0  0  0  0  0  0  0  0  0  0  0
  -11.1319   -2.3729    0.0000 C   0  0  0  0  0  0  0  0  0  0  0  0
  -10.1066   -1.3475    0.0000 C   0  0  0  0  0  0  0  0  0  0  0  0
  -10.6925   -0.7616    0.0000 C   0  0  0  0  0  0  0  0  0  0  0  0
  -11.5127   -0.7616    0.0000 N   0  0  0  0  0  0  0  0  0  0  0  0
  -10.3702    0.0000    0.0000 O   0  0  0  0  0  0  0  0  0  0  0  0
  -11.7178   -1.7869    0.0000 O   0  0  0  0  0  0  0  0  0  0  0  0
  -11.3369   -3.1638    0.0000 N   0  0  0  0  0  0  0  0  0  0  0  0
  -12.1572   -3.1638    0.0000 C   0  0  0  0  0  0  0  0  0  0  0  0
  -12.5673   -3.8961    0.0000 C   0  0  0  0  0  0  0  0  0  0  0  0
  -12.5673   -2.4607    0.0000 C   0  0  0  0  0  0  0  0  0  0  0  0
  -12.3623   -1.6405    0.0000 O   0  0  0  0  0  0  0  0  0  0  0  0
  -13.4169   -3.8961    0.0000 O   0  0  0  0  0  0  0  0  0  0  0  0
  -12.1572   -4.5992    0.0000 N   0  0  0  0  0  0  0  0  0  0  0  0
  -12.5673   -5.3316    0.0000 C   0  0  0  0  0  0  0  0  0  0  0  0
  -12.1572   -6.0346    0.0000 C   0  0  0  0  0  0  0  0  0  0  0  0
  -13.4169   -5.3316    0.0000 C   0  0  0  0  0  0  0  0  0  0  0  0
  -13.8270   -6.0346    0.0000 C   0  0  0  0  0  0  0  0  0  0  0  0
  -13.8270   -4.5992    0.0000 C   0  0  0  0  0  0  0  0  0  0  0  0
  -14.6472   -6.0346    0.0000 C   0  0  0  0  0  0  0  0  0  0  0  0
  -12.5673   -6.7670    0.0000 O   0  0  0  0  0  0  0  0  0  0  0  0
  -11.3369   -6.0346    0.0000 N   0  0  0  0  0  0  0  0  0  0  0  0
  -10.9268   -6.7670    0.0000 C   0  0  0  0  0  0  0  0  0  0  0  0
  -10.1066   -6.7670    0.0000 C   0  0  0  0  0  0  0  0  0  0  0  0
  -11.3369   -7.4700    0.0000 C   0  0  0  0  0  0  0  0  0  0  0  0
  -10.9268   -8.2025    0.0000 C   0  0  0  0  0  0  0  0  0  0  0  0
  -11.3369   -8.9055    0.0000 C   0  0  0  0  0  0  0  0  0  0  0  0
  -10.1066   -8.2025    0.0000 C   0  0  0  0  0  0  0  0  0  0  0  0
   -9.6672   -7.4700    0.0000 O   0  0  0  0  0  0  0  0  0  0  0  0
   -9.6672   -6.0346    0.0000 N   0  0  0  0  0  0  0  0  0  0  0  0
   -8.8469   -6.0346    0.0000 C   0  0  0  0  0  0  0  0  0  0  0  0
   -8.4368   -5.3316    0.0000 C   0  0  0  0  0  0  0  0  0  0  0  0
   -8.4368   -6.7670    0.0000 C   0  0  0  0  0  0  0  0  0  0  0  0
   -7.6166   -5.3316    0.0000 O   0  0  0  0  0  0  0  0  0  0  0  0
   -8.8469   -4.5992    0.0000 O   0  0  0  0  0  0  0  0  0  0  0  0
   -7.6166   -6.7670    0.0000 C   0  0  0  0  0  0  0  0  0  0  0  0
   -7.2065   -7.4700    0.0000 N   0  0  0  0  0  0  0  0  0  0  0  0
   -7.2065   -6.0346    0.0000 O   0  0  0  0  0  0  0  0  0  0  0  0
    2.9880   -2.7536    0.0000 C   0  0  0  0  0  0  0  0  0  0  0  0
    0.0000    0.0000    0.0000 H   0  0  0  0  0  0  0  0  0  0  0  0
    0.0000    0.0000    0.0000 H   0  0  0  0  0  0  0  0  0  0  0  0
    0.0000    0.0000    0.0000 H   0  0  0  0  0  0  0  0  0  0  0  0
    0.0000    0.0000    0.0000 H   0  0  0  0  0  0  0  0  0  0  0  0
    0.0000    0.0000    0.0000 H   0  0  0  0  0  0  0  0  0  0  0  0
    0.0000    0.0000    0.0000 H   0  0  0  0  0  0  0  0  0  0  0  0
    0.0000    0.0000    0.0000 H   0  0  0  0  0  0  0  0  0  0  0  0
    0.0000    0.0000    0.0000 H   0  0  0  0  0  0  0  0  0  0  0  0
    0.0000    0.0000    0.0000 H   0  0  0  0  0  0  0  0  0  0  0  0
    0.0000    0.0000    0.0000 H   0  0  0  0  0  0  0  0  0  0  0  0
    0.0000    0.0000    0.0000 H   0  0  0  0  0  0  0  0  0  0  0  0
    0.0000    0.0000    0.0000 H   0  0  0  0  0  0  0  0  0  0  0  0
    0.0000    0.0000    0.0000 H   0  0  0  0  0  0  0  0  0  0  0  0
    0.0000    0.0000    0.0000 H   0  0  0  0  0  0  0  0  0  0  0  0
    0.0000    0.0000    0.0000 H   0  0  0  0  0  0  0  0  0  0  0  0
    0.0000    0.0000    0.0000 H   0  0  0  0  0  0  0  0  0  0  0  0
    0.0000    0.0000    0.0000 H   0  0  0  0  0  0  0  0  0  0  0  0
    0.0000    0.0000    0.0000 H   0  0  0  0  0  0  0  0  0  0  0  0
    0.0000    0.0000    0.0000 H   0  0  0  0  0  0  0  0  0  0  0  0
    0.0000    0.0000    0.0000 H   0  0  0  0  0  0  0  0  0  0  0  0
    0.0000    0.0000    0.0000 H   0  0  0  0  0  0  0  0  0  0  0  0
    0.0000    0.0000    0.0000 H   0  0  0  0  0  0  0  0  0  0  0  0
    0.0000    0.0000    0.0000 H   0  0  0  0  0  0  0  0  0  0  0  0
    0.0000    0.0000    0.0000 H   0  0  0  0  0  0  0  0  0  0  0  0
    0.0000    0.0000    0.0000 H   0  0  0  0  0  0  0  0  0  0  0  0
    0.0000    0.0000    0.0000 H   0  0  0  0  0  0  0  0  0  0  0  0
    0.0000    0.0000    0.0000 H   0  0  0  0  0  0  0  0  0  0  0  0
    0.0000    0.0000    0.0000 H   0  0  0  0  0  0  0  0  0  0  0  0
    0.0000    0.0000    0.0000 H   0  0  0  0  0  0  0  0  0  0  0  0
    0.0000    0.0000    0.0000 H   0  0  0  0  0  0  0  0  0  0  0  0
    0.0000    0.0000    0.0000 H   0  0  0  0  0  0  0  0  0  0  0  0
    0.0000    0.0000    0.0000 H   0  0  0  0  0  0  0  0  0  0  0  0
    0.0000    0.0000    0.0000 H   0  0  0  0  0  0  0  0  0  0  0  0
    0.0000    0.0000    0.0000 H   0  0  0  0  0  0  0  0  0  0  0  0
    0.0000    0.0000    0.0000 H   0  0  0  0  0  0  0  0  0  0  0  0
    0.0000    0.0000    0.0000 H   0  0  0  0  0  0  0  0  0  0  0  0
    0.0000    0.0000    0.0000 H   0  0  0  0  0  0  0  0  0  0  0  0
    0.0000    0.0000    0.0000 H   0  0  0  0  0  0  0  0  0  0  0  0
    0.0000    0.0000    0.0000 H   0  0  0  0  0  0  0  0  0  0  0  0
    0.0000    0.0000    0.0000 H   0  0  0  0  0  0  0  0  0  0  0  0
    0.0000    0.0000    0.0000 H   0  0  0  0  0  0  0  0  0  0  0  0
    0.0000    0.0000    0.0000 H   0  0  0  0  0  0  0  0  0  0  0  0
    0.0000    0.0000    0.0000 H   0  0  0  0  0  0  0  0  0  0  0  0
    0.0000    0.0000    0.0000 H   0  0  0  0  0  0  0  0  0  0  0  0
    0.0000    0.0000    0.0000 H   0  0  0  0  0  0  0  0  0  0  0  0
    0.0000    0.0000    0.0000 H   0  0  0  0  0  0  0  0  0  0  0  0
    0.0000    0.0000    0.0000 H   0  0  0  0  0  0  0  0  0  0  0  0
    0.0000    0.0000    0.0000 H   0  0  0  0  0  0  0  0  0  0  0  0
    0.0000    0.0000    0.0000 H   0  0  0  0  0  0  0  0  0  0  0  0
    0.0000    0.0000    0.0000 H   0  0  0  0  0  0  0  0  0  0  0  0
    0.0000    0.0000    0.0000 H   0  0  0  0  0  0  0  0  0  0  0  0
    0.0000    0.0000    0.0000 H   0  0  0  0  0  0  0  0  0  0  0  0
    0.0000    0.0000    0.0000 H   0  0  0  0  0  0  0  0  0  0  0  0
    0.0000    0.0000    0.0000 H   0  0  0  0  0  0  0  0  0  0  0  0
    0.0000    0.0000    0.0000 H   0  0  0  0  0  0  0  0  0  0  0  0
    0.0000    0.0000    0.0000 H   0  0  0  0  0  0  0  0  0  0  0  0
    0.0000    0.0000    0.0000 H   0  0  0  0  0  0  0  0  0  0  0  0
    0.0000    0.0000    0.0000 H   0  0  0  0  0  0  0  0  0  0  0  0
    0.0000    0.0000    0.0000 H   0  0  0  0  0  0  0  0  0  0  0  0
    0.0000    0.0000    0.0000 H   0  0  0  0  0  0  0  0  0  0  0  0
    0.0000    0.0000    0.0000 H   0  0  0  0  0  0  0  0  0  0  0  0
    0.0000    0.0000    0.0000 H   0  0  0  0  0  0  0  0  0  0  0  0
    0.0000    0.0000    0.0000 H   0  0  0  0  0  0  0  0  0  0  0  0
    0.0000    0.0000    0.0000 H   0  0  0  0  0  0  0  0  0  0  0  0
    0.0000    0.0000    0.0000 H   0  0  0  0  0  0  0  0  0  0  0  0
    0.0000    0.0000    0.0000 H   0  0  0  0  0  0  0  0  0  0  0  0
    0.0000    0.0000    0.0000 H   0  0  0  0  0  0  0  0  0  0  0  0
    0.0000    0.0000    0.0000 H   0  0  0  0  0  0  0  0  0  0  0  0
    0.0000    0.0000    0.0000 H   0  0  0  0  0  0  0  0  0  0  0  0
    0.0000    0.0000    0.0000 H   0  0  0  0  0  0  0  0  0  0  0  0
    0.0000    0.0000    0.0000 H   0  0  0  0  0  0  0  0  0  0  0  0
    0.0000    0.0000    0.0000 H   0  0  0  0  0  0  0  0  0  0  0  0
    0.0000    0.0000    0.0000 H   0  0  0  0  0  0  0  0  0  0  0  0
    0.0000    0.0000    0.0000 H   0  0  0  0  0  0  0  0  0  0  0  0
    0.0000    0.0000    0.0000 H   0  0  0  0  0  0  0  0  0  0  0  0
    0.0000    0.0000    0.0000 H   0  0  0  0  0  0  0  0  0  0  0  0
    0.0000    0.0000    0.0000 H   0  0  0  0  0  0  0  0  0  0  0  0
    0.0000    0.0000    0.0000 H   0  0  0  0  0  0  0  0  0  0  0  0
    0.0000    0.0000    0.0000 H   0  0  0  0  0  0  0  0  0  0  0  0
    0.0000    0.0000    0.0000 H   0  0  0  0  0  0  0  0  0  0  0  0
    0.0000    0.0000    0.0000 H   0  0  0  0  0  0  0  0  0  0  0  0
    0.0000    0.0000    0.0000 H   0  0  0  0  0  0  0  0  0  0  0  0
    0.0000    0.0000    0.0000 H   0  0  0  0  0  0  0  0  0  0  0  0
    0.0000    0.0000    0.0000 H   0  0  0  0  0  0  0  0  0  0  0  0
    0.0000    0.0000    0.0000 H   0  0  0  0  0  0  0  0  0  0  0  0
    0.0000    0.0000    0.0000 H   0  0  0  0  0  0  0  0  0  0  0  0
    0.0000    0.0000    0.0000 H   0  0  0  0  0  0  0  0  0  0  0  0
    0.0000    0.0000    0.0000 H   0  0  0  0  0  0  0  0  0  0  0  0
    0.0000    0.0000    0.0000 H   0  0  0  0  0  0  0  0  0  0  0  0
    0.0000    0.0000    0.0000 H   0  0  0  0  0  0  0  0  0  0  0  0
    0.0000    0.0000    0.0000 H   0  0  0  0  0  0  0  0  0  0  0  0
    0.0000    0.0000    0.0000 H   0  0  0  0  0  0  0  0  0  0  0  0
    0.0000    0.0000    0.0000 H   0  0  0  0  0  0  0  0  0  0  0  0
    0.0000    0.0000    0.0000 H   0  0  0  0  0  0  0  0  0  0  0  0
    0.0000    0.0000    0.0000 H   0  0  0  0  0  0  0  0  0  0  0  0
    0.0000    0.0000    0.0000 H   0  0  0  0  0  0  0  0  0  0  0  0
    0.0000    0.0000    0.0000 H   0  0  0  0  0  0  0  0  0  0  0  0
    0.0000    0.0000    0.0000 H   0  0  0  0  0  0  0  0  0  0  0  0
    0.0000    0.0000    0.0000 H   0  0  0  0  0  0  0  0  0  0  0  0
    0.0000    0.0000    0.0000 H   0  0  0  0  0  0  0  0  0  0  0  0
    0.0000    0.0000    0.0000 H   0  0  0  0  0  0  0  0  0  0  0  0
    0.0000    0.0000    0.0000 H   0  0  0  0  0  0  0  0  0  0  0  0
    0.0000    0.0000    0.0000 H   0  0  0  0  0  0  0  0  0  0  0  0
    0.0000    0.0000    0.0000 H   0  0  0  0  0  0  0  0  0  0  0  0
    0.0000    0.0000    0.0000 H   0  0  0  0  0  0  0  0  0  0  0  0
    0.0000    0.0000    0.0000 H   0  0  0  0  0  0  0  0  0  0  0  0
    0.0000    0.0000    0.0000 H   0  0  0  0  0  0  0  0  0  0  0  0
    0.0000    0.0000    0.0000 H   0  0  0  0  0  0  0  0  0  0  0  0
    0.0000    0.0000    0.0000 H   0  0  0  0  0  0  0  0  0  0  0  0
    0.0000    0.0000    0.0000 H   0  0  0  0  0  0  0  0  0  0  0  0
    0.0000    0.0000    0.0000 H   0  0  0  0  0  0  0  0  0  0  0  0
    0.0000    0.0000    0.0000 H   0  0  0  0  0  0  0  0  0  0  0  0
    0.0000    0.0000    0.0000 H   0  0  0  0  0  0  0  0  0  0  0  0
    0.0000    0.0000    0.0000 H   0  0  0  0  0  0  0  0  0  0  0  0
    0.0000    0.0000    0.0000 H   0  0  0  0  0  0  0  0  0  0  0  0
    0.0000    0.0000    0.0000 H   0  0  0  0  0  0  0  0  0  0  0  0
    0.0000    0.0000    0.0000 H   0  0  0  0  0  0  0  0  0  0  0  0
    0.0000    0.0000    0.0000 H   0  0  0  0  0  0  0  0  0  0  0  0
    0.0000    0.0000    0.0000 H   0  0  0  0  0  0  0  0  0  0  0  0
    0.0000    0.0000    0.0000 H   0  0  0  0  0  0  0  0  0  0  0  0
    0.0000    0.0000    0.0000 H   0  0  0  0  0  0  0  0  0  0  0  0
    0.0000    0.0000    0.0000 H   0  0  0  0  0  0  0  0  0  0  0  0
    0.0000    0.0000    0.0000 H   0  0  0  0  0  0  0  0  0  0  0  0
    0.0000    0.0000    0.0000 H   0  0  0  0  0  0  0  0  0  0  0  0
    0.0000    0.0000    0.0000 H   0  0  0  0  0  0  0  0  0  0  0  0
    0.0000    0.0000    0.0000 H   0  0  0  0  0  0  0  0  0  0  0  0
    0.0000    0.0000    0.0000 H   0  0  0  0  0  0  0  0  0  0  0  0
    0.0000    0.0000    0.0000 H   0  0  0  0  0  0  0  0  0  0  0  0
    0.0000    0.0000    0.0000 H   0  0  0  0  0  0  0  0  0  0  0  0
    0.0000    0.0000    0.0000 H   0  0  0  0  0  0  0  0  0  0  0  0
    0.0000    0.0000    0.0000 H   0  0  0  0  0  0  0  0  0  0  0  0
    0.0000    0.0000    0.0000 H   0  0  0  0  0  0  0  0  0  0  0  0
    0.0000    0.0000    0.0000 H   0  0  0  0  0  0  0  0  0  0  0  0
    0.0000    0.0000    0.0000 H   0  0  0  0  0  0  0  0  0  0  0  0
    0.0000    0.0000    0.0000 H   0  0  0  0  0  0  0  0  0  0  0  0
    0.0000    0.0000    0.0000 H   0  0  0  0  0  0  0  0  0  0  0  0
    0.0000    0.0000    0.0000 H   0  0  0  0  0  0  0  0  0  0  0  0
    0.0000    0.0000    0.0000 H   0  0  0  0  0  0  0  0  0  0  0  0
    0.0000    0.0000    0.0000 H   0  0  0  0  0  0  0  0  0  0  0  0
    0.0000    0.0000    0.0000 H   0  0  0  0  0  0  0  0  0  0  0  0
    0.0000    0.0000    0.0000 H   0  0  0  0  0  0  0  0  0  0  0  0
    0.0000    0.0000    0.0000 H   0  0  0  0  0  0  0  0  0  0  0  0
    0.0000    0.0000    0.0000 H   0  0  0  0  0  0  0  0  0  0  0  0
    0.0000    0.0000    0.0000 H   0  0  0  0  0  0  0  0  0  0  0  0
    0.0000    0.0000    0.0000 H   0  0  0  0  0  0  0  0  0  0  0  0
    0.0000    0.0000    0.0000 H   0  0  0  0  0  0  0  0  0  0  0  0
    0.0000    0.0000    0.0000 H   0  0  0  0  0  0  0  0  0  0  0  0
    0.0000    0.0000    0.0000 H   0  0  0  0  0  0  0  0  0  0  0  0
    0.0000    0.0000    0.0000 H   0  0  0  0  0  0  0  0  0  0  0  0
    0.0000    0.0000    0.0000 H   0  0  0  0  0  0  0  0  0  0  0  0
    0.0000    0.0000    0.0000 H   0  0  0  0  0  0  0  0  0  0  0  0
    0.0000    0.0000    0.0000 H   0  0  0  0  0  0  0  0  0  0  0  0
    0.0000    0.0000    0.0000 H   0  0  0  0  0  0  0  0  0  0  0  0
    0.0000    0.0000    0.0000 H   0  0  0  0  0  0  0  0  0  0  0  0
    0.0000    0.0000    0.0000 H   0  0  0  0  0  0  0  0  0  0  0  0
    0.0000    0.0000    0.0000 H   0  0  0  0  0  0  0  0  0  0  0  0
    0.0000    0.0000    0.0000 H   0  0  0  0  0  0  0  0  0  0  0  0
    0.0000    0.0000    0.0000 H   0  0  0  0  0  0  0  0  0  0  0  0
    0.0000    0.0000    0.0000 H   0  0  0  0  0  0  0  0  0  0  0  0
    0.0000    0.0000    0.0000 H   0  0  0  0  0  0  0  0  0  0  0  0
    0.0000    0.0000    0.0000 H   0  0  0  0  0  0  0  0  0  0  0  0
    0.0000    0.0000    0.0000 H   0  0  0  0  0  0  0  0  0  0  0  0
    0.0000    0.0000    0.0000 H   0  0  0  0  0  0  0  0  0  0  0  0
    0.0000    0.0000    0.0000 H   0  0  0  0  0  0  0  0  0  0  0  0
    0.0000    0.0000    0.0000 H   0  0  0  0  0  0  0  0  0  0  0  0
    0.0000    0.0000    0.0000 H   0  0  0  0  0  0  0  0  0  0  0  0
    0.0000    0.0000    0.0000 H   0  0  0  0  0  0  0  0  0  0  0  0
    0.0000    0.0000    0.0000 H   0  0  0  0  0  0  0  0  0  0  0  0
    0.0000    0.0000    0.0000 H   0  0  0  0  0  0  0  0  0  0  0  0
    0.0000    0.0000    0.0000 H   0  0  0  0  0  0  0  0  0  0  0  0
    0.0000    0.0000    0.0000 H   0  0  0  0  0  0  0  0  0  0  0  0
    0.0000    0.0000    0.0000 H   0  0  0  0  0  0  0  0  0  0  0  0
    0.0000    0.0000    0.0000 H   0  0  0  0  0  0  0  0  0  0  0  0
    0.0000    0.0000    0.0000 H   0  0  0  0  0  0  0  0  0  0  0  0
    0.0000    0.0000    0.0000 H   0  0  0  0  0  0  0  0  0  0  0  0
    0.0000    0.0000    0.0000 H   0  0  0  0  0  0  0  0  0  0  0  0
    0.0000    0.0000    0.0000 H   0  0  0  0  0  0  0  0  0  0  0  0
    0.0000    0.0000    0.0000 H   0  0  0  0  0  0  0  0  0  0  0  0
    0.0000    0.0000    0.0000 H   0  0  0  0  0  0  0  0  0  0  0  0
    0.0000    0.0000    0.0000 H   0  0  0  0  0  0  0  0  0  0  0  0
    0.0000    0.0000    0.0000 H   0  0  0  0  0  0  0  0  0  0  0  0
    0.0000    0.0000    0.0000 H   0  0  0  0  0  0  0  0  0  0  0  0
    0.0000    0.0000    0.0000 H   0  0  0  0  0  0  0  0  0  0  0  0
    0.0000    0.0000    0.0000 H   0  0  0  0  0  0  0  0  0  0  0  0
    0.0000    0.0000    0.0000 H   0  0  0  0  0  0  0  0  0  0  0  0
    0.0000    0.0000    0.0000 H   0  0  0  0  0  0  0  0  0  0  0  0
    0.0000    0.0000    0.0000 H   0  0  0  0  0  0  0  0  0  0  0  0
    0.0000    0.0000    0.0000 H   0  0  0  0  0  0  0  0  0  0  0  0
    0.0000    0.0000    0.0000 H   0  0  0  0  0  0  0  0  0  0  0  0
    0.0000    0.0000    0.0000 H   0  0  0  0  0  0  0  0  0  0  0  0
    0.0000    0.0000    0.0000 H   0  0  0  0  0  0  0  0  0  0  0  0
    0.0000    0.0000    0.0000 H   0  0  0  0  0  0  0  0  0  0  0  0
    0.0000    0.0000    0.0000 H   0  0  0  0  0  0  0  0  0  0  0  0
    0.0000    0.0000    0.0000 H   0  0  0  0  0  0  0  0  0  0  0  0
    0.0000    0.0000    0.0000 H   0  0  0  0  0  0  0  0  0  0  0  0
    0.0000    0.0000    0.0000 H   0  0  0  0  0  0  0  0  0  0  0  0
    0.0000    0.0000    0.0000 H   0  0  0  0  0  0  0  0  0  0  0  0
    0.0000    0.0000    0.0000 H   0  0  0  0  0  0  0  0  0  0  0  0
    0.0000    0.0000    0.0000 H   0  0  0  0  0  0  0  0  0  0  0  0
    0.0000    0.0000    0.0000 H   0  0  0  0  0  0  0  0  0  0  0  0
    0.0000    0.0000    0.0000 H   0  0  0  0  0  0  0  0  0  0  0  0
    0.0000    0.0000    0.0000 H   0  0  0  0  0  0  0  0  0  0  0  0
    0.0000    0.0000    0.0000 H   0  0  0  0  0  0  0  0  0  0  0  0
    0.0000    0.0000    0.0000 H   0  0  0  0  0  0  0  0  0  0  0  0
    0.0000    0.0000    0.0000 H   0  0  0  0  0  0  0  0  0  0  0  0
    0.0000    0.0000    0.0000 H   0  0  0  0  0  0  0  0  0  0  0  0
    0.0000    0.0000    0.0000 H   0  0  0  0  0  0  0  0  0  0  0  0
    0.0000    0.0000    0.0000 H   0  0  0  0  0  0  0  0  0  0  0  0
    0.0000    0.0000    0.0000 H   0  0  0  0  0  0  0  0  0  0  0  0
    0.0000    0.0000    0.0000 H   0  0  0  0  0  0  0  0  0  0  0  0
    0.0000    0.0000    0.0000 H   0  0  0  0  0  0  0  0  0  0  0  0
    0.0000    0.0000    0.0000 H   0  0  0  0  0  0  0  0  0  0  0  0
    0.0000    0.0000    0.0000 H   0  0  0  0  0  0  0  0  0  0  0  0
    0.0000    0.0000    0.0000 H   0  0  0  0  0  0  0  0  0  0  0  0
    0.0000    0.0000    0.0000 H   0  0  0  0  0  0  0  0  0  0  0  0
    0.0000    0.0000    0.0000 H   0  0  0  0  0  0  0  0  0  0  0  0
    0.0000    0.0000    0.0000 H   0  0  0  0  0  0  0  0  0  0  0  0
    0.0000    0.0000    0.0000 H   0  0  0  0  0  0  0  0  0  0  0  0
    0.0000    0.0000    0.0000 H   0  0  0  0  0  0  0  0  0  0  0  0
    0.0000    0.0000    0.0000 H   0  0  0  0  0  0  0  0  0  0  0  0
    0.0000    0.0000    0.0000 H   0  0  0  0  0  0  0  0  0  0  0  0
    0.0000    0.0000    0.0000 H   0  0  0  0  0  0  0  0  0  0  0  0
    0.0000    0.0000    0.0000 H   0  0  0  0  0  0  0  0  0  0  0  0
    0.0000    0.0000    0.0000 H   0  0  0  0  0  0  0  0  0  0  0  0
    0.0000    0.0000    0.0000 H   0  0  0  0  0  0  0  0  0  0  0  0
    0.0000    0.0000    0.0000 H   0  0  0  0  0  0  0  0  0  0  0  0
    0.0000    0.0000    0.0000 H   0  0  0  0  0  0  0  0  0  0  0  0
    0.0000    0.0000    0.0000 H   0  0  0  0  0  0  0  0  0  0  0  0
    0.0000    0.0000    0.0000 H   0  0  0  0  0  0  0  0  0  0  0  0
    0.0000    0.0000    0.0000 H   0  0  0  0  0  0  0  0  0  0  0  0
    0.0000    0.0000    0.0000 H   0  0  0  0  0  0  0  0  0  0  0  0
    0.0000    0.0000    0.0000 H   0  0  0  0  0  0  0  0  0  0  0  0
  2  1  1  6
  1  3  2  0
  1  4  1  0
  2  5  1  0
  2  6  1  0
133  4  1  6
  5 11  1  0
  6  7  1  0
  7  8  1  0
  8  9  1  0
  8 10  2  0
 12 11  1  6
 11 13  2  0
 12 14  1  0
 12 15  1  0
 14 16  1  0
 15 18  1  0
 16 17  1  0
 17 95  1  0
 19 18  1  1
 18 20  2  0
 19 21  1  0
 19 22  1  0
 22 23  1  0
 24 23  1  1
 23 25  2  0
 24 26  1  0
 24 27  1  0
 26 28  1  0
 27 31  1  0
 28 29  1  0
 28 30  1  0
 32 31  1  1
 31 33  2  0
 32 34  1  0
 32 35  1  0
 34 36  1  0
 35 42  1  0
 36 37  1  0
 37 38  1  0
 38 39  1  0
 39 40  2  3
 39 41  1  0
 43 42  1  1
 42 44  2  0
 43 45  1  0
 43 46  1  0
 45 47  1  6
 45 48  1  0
 46 49  1  0
 47229  1  0
 50 49  1  1
 49 51  2  0
 50 52  1  0
 50 53  1  0
 52 61  1  0
 53 54  1  0
 54 55  2  0
 54 59  1  0
 55 56  1  0
 56 57  2  0
 57 58  1  0
 57 60  1  0
 58 59  2  0
 62 61  1  6
 61 63  2  0
 62 64  1  0
 62 65  1  0
 64 66  1  0
 65 69  1  0
 66 67  2  0
 66 68  1  0
 70 69  1  1
 69 71  2  0
 70 72  1  0
 70 73  1  0
 72 74  1  0
 73 77  1  0
 74 75  1  0
 74 76  2  0
 78 77  1  1
 77 79  2  0
 78 80  1  0
 78 81  1  0
 80 84  1  0
 81 82  1  6
 81 83  1  0
 85 84  1  6
 84 86  2  0
 85 87  1  0
 85 88  1  0
 87 97  1  0
 88 89  1  0
 89 90  2  0
 89 94  1  0
 90 91  1  0
 91 92  2  0
 92 93  1  0
 93 94  2  0
 95 96  1  0
 98 97  1  6
 97 99  2  0
 98100  1  0
 98101  1  0
100104  1  0
101102  1  0
101103  1  0
105104  1  6
104106  2  0
105107  1  0
105108  1  0
108109  1  0
110109  1  6
109111  2  0
110112  1  0
110113  1  0
112114  1  0
113117  1  0
114115  2  0
114116  1  0
118117  1  1
117119  2  0
118120  1  0
118121  1  0
120132  1  0
121122  1  0
122123  2  0
124122  1  6
124125  1  0
124126  1  0
126127  1  0
127128  1  0
127131  2  0
128129  1  0
129130  2  0
130131  1  0
133134  1  0
133135  1  0
134139  1  0
134140  2  0
135136  1  0
136137  1  0
137138  1  0
141139  1  6
141142  1  0
141143  1  0
142144  2  0
142145  1  0
146145  1  6
146147  1  0
146148  1  0
147151  2  0
147152  1  0
148149  1  0
148150  1  0
153152  1  6
153154  1  0
153155  1  0
154160  1  0
154161  2  0
155156  1  0
156157  1  0
157158  1  0
158159  1  0
162160  1  6
162163  1  0
162164  1  0
163165  2  0
163166  1  0
164167  1  0
171166  1  1
167168  1  0
168169  1  0
169170  1  0
171172  1  0
171180  1  0
172173  1  0
172174  2  0
175173  1  6
175176  1  0
175188  1  0
176177  1  0
177178  1  0
177179  1  0
180181  1  0
181182  2  0
181186  1  0
182183  1  0
183184  2  0
184185  1  0
184187  1  0
185186  2  0
188189  1  0
188190  2  0
191189  1  6
191192  1  0
191193  1  0
192197  2  0
192198  1  0
193194  1  0
194195  1  0
194196  2  0
199198  1  6
199200  1  0
199201  1  0
200203  2  0
200204  1  0
201202  1  0
205204  1  6
205206  1  0
205207  1  0
206211  2  0
206212  1  0
207208  1  1
207209  1  0
208210  1  0
213212  1  6
213214  1  0
213215  1  0
214219  2  0
214220  1  0
215216  1  0
216217  1  0
216218  1  0
221220  1  1
221222  1  0
221223  1  0
222224  1  0
222225  2  0
223226  1  0
226227  1  0
226228  2  0
  2230  1  0
  4231  1  0
  5232  1  0
  6233  1  0
  6234  1  0
  7235  1  0
  7236  1  0
  9237  1  0
  9238  1  0
 12239  1  0
 14240  1  0
 14241  1  0
 15242  1  0
 16243  1  0
 16244  1  0
 17245  1  0
 17246  1  0
 19247  1  0
 21248  1  0
 21249  1  0
 21250  1  0
 22251  1  0
 24252  1  0
 26253  1  0
 26254  1  0
 27255  1  0
 28256  1  0
 29257  1  0
 29258  1  0
 29259  1  0
 30260  1  0
 30261  1  0
 30262  1  0
 32263  1  0
 34264  1  0
 34265  1  0
 35266  1  0
 36267  1  0
 36268  1  0
 37269  1  0
 37270  1  0
 38271  1  0
 40272  1  0
 41273  1  0
 41274  1  0
 43275  1  0
 45276  1  0
 46277  1  0
 47278  1  0
 47279  1  0
 48280  1  0
 50281  1  0
 52282  1  0
 53283  1  0
 53284  1  0
 55285  1  0
 56286  1  0
 58287  1  0
 59288  1  0
 60289  1  0
 62290  1  0
 64291  1  0
 64292  1  0
 65293  1  0
 68294  1  0
 68295  1  0
 70296  1  0
 72297  1  0
 72298  1  0
 73299  1  0
 75300  1  0
 78301  1  0
 80302  1  0
 81303  1  0
 82304  1  0
 82305  1  0
 82306  1  0
 83307  1  0
 85308  1  0
 87309  1  0
 88310  1  0
 88311  1  0
 90312  1  0
 91313  1  0
 92314  1  0
 93315  1  0
 94316  1  0
 95317  1  0
 95318  1  0
 96319  1  0
 96320  1  0
 98321  1  0
100322  1  0
101323  1  0
102324  1  0
102325  1  0
102326  1  0
103327  1  0
103328  1  0
103329  1  0
105330  1  0
107331  1  0
107332  1  0
107333  1  0
108334  1  0
110335  1  0
112336  1  0
112337  1  0
113338  1  0
116339  1  0
118340  1  0
120341  1  0
120342  1  0
121343  1  0
124344  1  0
125345  1  0
125346  1  0
126347  1  0
126348  1  0
128349  1  0
129350  1  0
131351  1  0
132352  1  0
133353  1  0
135354  1  0
135355  1  0
136356  1  0
136357  1  0
138358  1  0
138359  1  0
138360  1  0
139361  1  0
141362  1  0
143363  1  0
143364  1  0
143365  1  0
145366  1  0
146367  1  0
148368  1  0
149369  1  0
149370  1  0
149371  1  0
150372  1  0
150373  1  0
150374  1  0
152375  1  0
153376  1  0
155377  1  0
155378  1  0
156379  1  0
156380  1  0
157381  1  0
157382  1  0
158383  1  0
158384  1  0
159385  1  0
159386  1  0
160387  1  0
162388  1  0
164389  1  0
164390  1  0
166391  1  0
167392  1  0
167393  1  0
168394  1  0
168395  1  0
169396  1  0
169397  1  0
170398  1  0
170399  1  0
171400  1  0
173401  1  0
175402  1  0
176403  1  0
176404  1  0
177405  1  0
178406  1  0
178407  1  0
178408  1  0
179409  1  0
179410  1  0
179411  1  0
180412  1  0
180413  1  0
182414  1  0
183415  1  0
185416  1  0
186417  1  0
187418  1  0
189419  1  0
191420  1  0
193421  1  0
193422  1  0
195423  1  0
195424  1  0
198425  1  0
199426  1  0
201427  1  0
201428  1  0
202429  1  0
204430  1  0
205431  1  0
207432  1  0
208433  1  0
208434  1  0
209435  1  0
209436  1  0
209437  1  0
210438  1  0
210439  1  0
210440  1  0
212441  1  0
213442  1  0
215443  1  0
215444  1  0
216445  1  0
217446  1  0
217447  1  0
217448  1  0
218449  1  0
218450  1  0
218451  1  0
220452  1  0
221453  1  0
223454  1  0
223455  1  0
224456  1  0
227457  1  0
227458  1  0
229459  1  0
229460  1  0
229461  1  0
M  END
>  <ALOGPS_LOGP>  (1) 
-1.57

>  <ALOGPS_LOGS>  (1) 
-4.78

>  <ALOGPS_SOLUBILITY>  (1) 
5.36e-02 g/l

>  <DATABASE_ID>  (1) 
DB06260

>  <DATABASE_NAME>  (1) 
drugbank

>  <DRUGBANK_ID>  (1) 
DB06260

>  <DRUG_GROUPS>  (1) 
approved

>  <EXACT_MASS>  (1) 
3253.691767464

>  <FORMULA>  (1) 
C145H232N40O43S

>  <GENERIC_NAME>  (1) 
Aviptadil

>  <INCHI_IDENTIFIER>  (1) 
InChI=1S/C145H232N40O43S/c1-19-74(13)114(141(224)175-94(55-71(7)8)130(213)178-102(144(227)228)62-109(153)195)183-138(221)104(67-187)180-133(216)99(61-108(152)194)172-129(212)93(54-70(5)6)169-131(214)95(57-80-37-41-83(189)42-38-80)170-124(207)87(34-25-28-49-147)163-123(206)88(35-26-29-50-148)166-139(222)112(72(9)10)181-118(201)76(15)159-121(204)91(47-52-229-18)165-126(209)90(45-46-106(150)192)164-122(205)86(33-24-27-48-146)162-117(200)75(14)160-127(210)92(53-69(3)4)168-125(208)89(36-30-51-157-145(154)155)167-143(226)116(105(191)20-2)185-136(219)96(58-81-39-43-84(190)44-40-81)171-132(215)98(60-107(151)193)173-134(217)101(64-111(198)199)177-142(225)115(78(17)188)184-135(218)97(56-79-31-22-21-23-32-79)176-140(223)113(73(11)12)182-119(202)77(16)161-128(211)100(63-110(196)197)174-137(220)103(66-186)179-120(203)85(149)59-82-65-156-68-158-82/h21-23,31-32,37-44,65,68-78,85-105,112-116,186-191H,19-20,24-30,33-36,45-64,66-67,146-149H2,1-18H3,(H2,150,192)(H2,151,193)(H2,152,194)(H2,153,195)(H,156,158)(H,159,204)(H,160,210)(H,161,211)(H,162,200)(H,163,206)(H,164,205)(H,165,209)(H,166,222)(H,167,226)(H,168,208)(H,169,214)(H,170,207)(H,171,215)(H,172,212)(H,173,217)(H,174,220)(H,175,224)(H,176,223)(H,177,225)(H,178,213)(H,179,203)(H,180,216)(H,181,201)(H,182,202)(H,183,221)(H,184,218)(H,185,219)(H,196,197)(H,198,199)(H,227,228)(H4,154,155,157)/t74-,75-,76-,77-,78+,85-,86-,87-,88-,89-,90-,91-,92-,93-,94-,95-,96-,97-,98-,99-,100-,101-,102-,103-,104-,105+,112-,113-,114-,115-,116-/m0/s1

>  <INCHI_KEY>  (1) 
OIDGWOIMPADMGM-GXSWRUKYSA-N

>  <JCHEM_ACCEPTOR_COUNT>  (1) 
51

>  <JCHEM_ATOM_COUNT>  (1) 
461

>  <JCHEM_AVERAGE_POLARIZABILITY>  (1) 
336.9355148821087

>  <JCHEM_BIOAVAILABILITY>  (1) 
0

>  <JCHEM_DONOR_COUNT>  (1) 
48

>  <JCHEM_FORMAL_CHARGE>  (1) 
0

>  <JCHEM_GHOSE_FILTER>  (1) 
0

>  <JCHEM_IUPAC>  (1) 
(3S)-3-{[(1S)-1-{[(1S)-1-{[(1S,2R)-1-{[(1S)-1-{[(1S)-1-{[(1S)-1-{[(1S)-5-amino-1-{[(1S)-1-{[(1S)-1-{[(1S)-1-{[(1S)-1-{[(1S)-5-amino-1-{[(1S)-5-amino-1-{[(1S)-1-{[(1S)-1-{[(1S)-2-carbamoyl-1-{[(1S)-1-{[(1S,2S)-1-{[(1S)-1-{[(1S)-2-carbamoyl-1-carboxyethyl]carbamoyl}-3-methylbutyl]carbamoyl}-2-methylbutyl]carbamoyl}-2-hydroxyethyl]carbamoyl}ethyl]carbamoyl}-3-methylbutyl]carbamoyl}-2-(4-hydroxyphenyl)ethyl]carbamoyl}pentyl]carbamoyl}pentyl]carbamoyl}-2-methylpropyl]carbamoyl}ethyl]carbamoyl}-3-(methylsulfanyl)propyl]carbamoyl}-3-carbamoylpropyl]carbamoyl}pentyl]carbamoyl}ethyl]carbamoyl}-3-methylbutyl]carbamoyl}-4-carbamimidamidobutyl]carbamoyl}-2-hydroxybutyl]carbamoyl}-2-(4-hydroxyphenyl)ethyl]carbamoyl}-2-carbamoylethyl]carbamoyl}-3-[(2S,3R)-2-[(2S)-2-[(2S)-2-[(2S)-2-[(2S)-2-[(2S)-2-[(2S)-2-amino-3-(1H-imidazol-5-yl)propanamido]-3-hydroxypropanamido]-3-carboxypropanamido]propanamido]-3-methylbutanamido]-3-phenylpropanamido]-3-hydroxybutanamido]propanoic acid

>  <JCHEM_LOGP>  (1) 
-21.401304637712606

>  <JCHEM_MDDR_LIKE_RULE>  (1) 
1

>  <JCHEM_NUMBER_OF_RINGS>  (1) 
4

>  <JCHEM_PHYSIOLOGICAL_CHARGE>  (1) 
2

>  <JCHEM_PKA>  (1) 
3.4295202162444065

>  <JCHEM_PKA_STRONGEST_ACIDIC>  (1) 
2.9437813904941366

>  <JCHEM_PKA_STRONGEST_BASIC>  (1) 
11.896544697004405

>  <JCHEM_POLAR_SURFACE_AREA>  (1) 
1385.9999999999995

>  <JCHEM_REFRACTIVITY>  (1) 
825.7599000000008

>  <JCHEM_ROTATABLE_BOND_COUNT>  (1) 
110

>  <JCHEM_RULE_OF_FIVE>  (1) 
0

>  <JCHEM_TRADITIONAL_IUPAC>  (1) 
(3S)-3-{[(1S)-1-{[(1S)-1-{[(1S,2R)-1-{[(1S)-1-{[(1S)-1-{[(1S)-1-{[(1S)-5-amino-1-{[(1S)-1-{[(1S)-1-{[(1S)-1-{[(1S)-1-{[(1S)-5-amino-1-{[(1S)-5-amino-1-{[(1S)-1-{[(1S)-1-{[(1S)-2-carbamoyl-1-{[(1S)-1-{[(1S,2S)-1-{[(1S)-1-{[(1S)-2-carbamoyl-1-carboxyethyl]carbamoyl}-3-methylbutyl]carbamoyl}-2-methylbutyl]carbamoyl}-2-hydroxyethyl]carbamoyl}ethyl]carbamoyl}-3-methylbutyl]carbamoyl}-2-(4-hydroxyphenyl)ethyl]carbamoyl}pentyl]carbamoyl}pentyl]carbamoyl}-2-methylpropyl]carbamoyl}ethyl]carbamoyl}-3-(methylsulfanyl)propyl]carbamoyl}-3-carbamoylpropyl]carbamoyl}pentyl]carbamoyl}ethyl]carbamoyl}-3-methylbutyl]carbamoyl}-4-carbamimidamidobutyl]carbamoyl}-2-hydroxybutyl]carbamoyl}-2-(4-hydroxyphenyl)ethyl]carbamoyl}-2-carbamoylethyl]carbamoyl}-3-[(2S,3R)-2-[(2S)-2-[(2S)-2-[(2S)-2-[(2S)-2-[(2S)-2-[(2S)-2-amino-3-(3H-imidazol-4-yl)propanamido]-3-hydroxypropanamido]-3-carboxypropanamido]propanamido]-3-methylbutanamido]-3-phenylpropanamido]-3-hydroxybutanamido]propanoic acid

>  <JCHEM_VEBER_RULE>  (1) 
0

>  <MOLECULAR_WEIGHT>  (1) 
3255.75

>  <SMILES>  (1) 
CC[C@H](C)[C@H](NC(=O)[C@H](CO)NC(=O)[C@H](CC(N)=O)NC(=O)[C@H](CC(C)C)NC(=O)[C@H](CC1=CC=C(O)C=C1)NC(=O)[C@H](CCCCN)NC(=O)[C@H](CCCCN)NC(=O)[C@@H](NC(=O)[C@H](C)NC(=O)[C@H](CCSC)NC(=O)[C@H](CCC(N)=O)NC(=O)[C@H](CCCCN)NC(=O)[C@H](C)NC(=O)[C@H](CC(C)C)NC(=O)[C@H](CCCNC(N)=N)NC(=O)[C@@H](NC(=O)[C@H](CC1=CC=C(O)C=C1)NC(=O)[C@H](CC(N)=O)NC(=O)[C@H](CC(O)=O)NC(=O)[C@@H](NC(=O)[C@H](CC1=CC=CC=C1)NC(=O)[C@@H](NC(=O)[C@H](C)NC(=O)[C@H](CC(O)=O)NC(=O)[C@H](CO)NC(=O)[C@@H](N)CC1=CN=CN1)C(C)C)[C@@H](C)O)[C@H](O)CC)C(C)C)C(=O)N[C@@H](CC(C)C)C(=O)N[C@@H](CC(N)=O)C(O)=O

>  <SYNONYMS>  (1) 
Porcine vasoactive intestinal octacosapeptide; Vasoactive intestinal octacosapeptide (pig); Vasoactive intestinal octacosapeptide (swine)

$$$$
