
     RDKit          2D

 37 36  0  0  0  0  0  0  0  0999 V2000
   -0.7150    0.2058    0.0000 C   0  0  0  0  0  0  0  0  0  0  0  0
   -1.4299   -0.2058    0.0000 O   0  0  0  0  0  0  0  0  0  0  0  0
   -2.1451    0.2058    0.0000 C   0  0  0  0  0  0  0  0  0  0  0  0
   -2.8602   -0.2058    0.0000 C   0  0  0  0  0  0  0  0  0  0  0  0
   -3.5751    0.2058    0.0000 C   0  0  0  0  0  0  0  0  0  0  0  0
   -4.2901   -0.2058    0.0000 O   0  0  0  0  0  0  0  0  0  0  0  0
   -2.8602   -1.0316    0.0000 O   0  0  0  0  0  0  0  0  0  0  0  0
    0.0000   -0.2058    0.0000 C   0  0  0  0  0  0  0  0  0  0  0  0
    0.7150    0.2058    0.0000 C   0  0  0  0  0  0  0  0  0  0  0  0
    1.4299   -0.2058    0.0000 C   0  0  0  0  0  0  0  0  0  0  0  0
    2.1451    0.2058    0.0000 C   0  0  0  0  0  0  0  0  0  0  0  0
    2.8602   -0.2058    0.0000 C   0  0  0  0  0  0  0  0  0  0  0  0
    3.5751    0.2058    0.0000 C   0  0  0  0  0  0  0  0  0  0  0  0
    4.2901   -0.2058    0.0000 C   0  0  0  0  0  0  0  0  0  0  0  0
   -0.7150    1.0316    0.0000 O   0  0  0  0  0  0  0  0  0  0  0  0
    0.0000    0.0000    0.0000 H   0  0  0  0  0  0  0  0  0  0  0  0
    0.0000    0.0000    0.0000 H   0  0  0  0  0  0  0  0  0  0  0  0
    0.0000    0.0000    0.0000 H   0  0  0  0  0  0  0  0  0  0  0  0
    0.0000    0.0000    0.0000 H   0  0  0  0  0  0  0  0  0  0  0  0
    0.0000    0.0000    0.0000 H   0  0  0  0  0  0  0  0  0  0  0  0
    0.0000    0.0000    0.0000 H   0  0  0  0  0  0  0  0  0  0  0  0
    0.0000    0.0000    0.0000 H   0  0  0  0  0  0  0  0  0  0  0  0
    0.0000    0.0000    0.0000 H   0  0  0  0  0  0  0  0  0  0  0  0
    0.0000    0.0000    0.0000 H   0  0  0  0  0  0  0  0  0  0  0  0
    0.0000    0.0000    0.0000 H   0  0  0  0  0  0  0  0  0  0  0  0
    0.0000    0.0000    0.0000 H   0  0  0  0  0  0  0  0  0  0  0  0
    0.0000    0.0000    0.0000 H   0  0  0  0  0  0  0  0  0  0  0  0
    0.0000    0.0000    0.0000 H   0  0  0  0  0  0  0  0  0  0  0  0
    0.0000    0.0000    0.0000 H   0  0  0  0  0  0  0  0  0  0  0  0
    0.0000    0.0000    0.0000 H   0  0  0  0  0  0  0  0  0  0  0  0
    0.0000    0.0000    0.0000 H   0  0  0  0  0  0  0  0  0  0  0  0
    0.0000    0.0000    0.0000 H   0  0  0  0  0  0  0  0  0  0  0  0
    0.0000    0.0000    0.0000 H   0  0  0  0  0  0  0  0  0  0  0  0
    0.0000    0.0000    0.0000 H   0  0  0  0  0  0  0  0  0  0  0  0
    0.0000    0.0000    0.0000 H   0  0  0  0  0  0  0  0  0  0  0  0
    0.0000    0.0000    0.0000 H   0  0  0  0  0  0  0  0  0  0  0  0
    0.0000    0.0000    0.0000 H   0  0  0  0  0  0  0  0  0  0  0  0
  1  2  1  0
  1  8  1  0
  1 15  2  0
  2  3  1  0
  3  4  1  0
  4  5  1  0
  4  7  1  0
  5  6  1  0
  8  9  1  0
  9 10  1  0
 10 11  1  0
 11 12  1  0
 12 13  1  0
 13 14  1  0
  3 16  1  0
  3 17  1  0
  4 18  1  0
  5 19  1  0
  5 20  1  0
  6 21  1  0
  7 22  1  0
  8 23  1  0
  8 24  1  0
  9 25  1  0
  9 26  1  0
 10 27  1  0
 10 28  1  0
 11 29  1  0
 11 30  1  0
 12 31  1  0
 12 32  1  0
 13 33  1  0
 13 34  1  0
 14 35  1  0
 14 36  1  0
 14 37  1  0
M  END
>  <ALOGPS_LOGP>  (1) 
1.51

>  <ALOGPS_LOGS>  (1) 
-1.70

>  <ALOGPS_SOLUBILITY>  (1) 
4.36e+00 g/l

>  <DATABASE_ID>  (1) 
DB06801

>  <DATABASE_NAME>  (1) 
drugbank

>  <DRUGBANK_ID>  (1) 
DB06801

>  <DRUG_GROUPS>  (1) 
approved

>  <EXACT_MASS>  (1) 
218.151809188

>  <FORMULA>  (1) 
C11H22O4

>  <GENERIC_NAME>  (1) 
Monoctanoin

>  <INCHI_IDENTIFIER>  (1) 
InChI=1S/C11H22O4/c1-2-3-4-5-6-7-11(14)15-9-10(13)8-12/h10,12-13H,2-9H2,1H3

>  <INCHI_KEY>  (1) 
GHBFNMLVSPCDGN-UHFFFAOYSA-N

>  <INTERNATIONAL_BRANDS>  (1) 
Moctanin

>  <JCHEM_ACCEPTOR_COUNT>  (1) 
3

>  <JCHEM_ATOM_COUNT>  (1) 
37

>  <JCHEM_AVERAGE_POLARIZABILITY>  (1) 
25.383854517881026

>  <JCHEM_BIOAVAILABILITY>  (1) 
1

>  <JCHEM_DONOR_COUNT>  (1) 
2

>  <JCHEM_FORMAL_CHARGE>  (1) 
0

>  <JCHEM_GHOSE_FILTER>  (1) 
1

>  <JCHEM_IUPAC>  (1) 
2,3-dihydroxypropyl octanoate

>  <JCHEM_LOGP>  (1) 
1.525490559666666

>  <JCHEM_MDDR_LIKE_RULE>  (1) 
0

>  <JCHEM_NUMBER_OF_RINGS>  (1) 
0

>  <JCHEM_PHYSIOLOGICAL_CHARGE>  (1) 
0

>  <JCHEM_PKA>  (1) 
15.561713304317518

>  <JCHEM_PKA_STRONGEST_ACIDIC>  (1) 
13.619245765321082

>  <JCHEM_PKA_STRONGEST_BASIC>  (1) 
-2.968684336972288

>  <JCHEM_POLAR_SURFACE_AREA>  (1) 
66.75999999999999

>  <JCHEM_REFRACTIVITY>  (1) 
57.299499999999995

>  <JCHEM_ROTATABLE_BOND_COUNT>  (1) 
10

>  <JCHEM_RULE_OF_FIVE>  (1) 
1

>  <JCHEM_TRADITIONAL_IUPAC>  (1) 
monoctanoin

>  <JCHEM_VEBER_RULE>  (1) 
0

>  <MOLECULAR_WEIGHT>  (1) 
218.293

>  <SMILES>  (1) 
CCCCCCCC(=O)OCC(O)CO

>  <SYNONYMS>  (1) 
1-Monocaprylin; 2,3-Dihydroxypropyl octanoate; Caprylic acid Î±-monoglyceride; Monooctanoin; Octanoic acid 1-monoglyceride

$$$$
