
     RDKit          2D

 51 53  0  0  1  0  0  0  0  0999 V2000
    6.3168   -1.5786    0.0000 S   0  0  0  0  0  0  0  0  0  0  0  0
    7.5019    2.5675    0.0000 S   0  0  0  0  0  0  0  0  0  0  0  0
    2.8083   -2.5791    0.0000 O   0  0  0  0  0  0  0  0  0  0  0  0
    2.0110   -0.7900    0.0000 O   0  0  0  0  0  0  0  0  0  0  0  0
    6.0688   -3.2022    0.0000 O   0  0  0  0  0  0  0  0  0  0  0  0
    4.7098   -3.6437    0.0000 O   0  0  0  0  0  0  0  0  0  0  0  0
    8.3223    2.6537    0.0000 O   0  0  0  0  0  0  0  0  0  0  0  0
    6.6814    2.4813    0.0000 O   0  0  0  0  0  0  0  0  0  0  0  0
    4.2223   -1.9911    0.0000 N   0  0  0  0  0  0  0  0  0  0  0  0
    7.7214    0.0291    0.0000 N   0  0  0  0  0  0  0  0  0  0  0  0
    7.5881    1.7470    0.0000 N   0  0  0  0  0  0  0  0  0  0  0  0
    7.4156    3.3880    0.0000 N   0  0  0  0  0  0  0  0  0  0  0  0
    4.2223   -1.1661    0.0000 C   0  0  0  0  0  0  0  0  0  0  0  0
    3.3904   -1.1627    0.0000 C   0  0  0  0  0  0  0  0  0  0  0  0
    5.0069   -0.9111    0.0000 C   0  0  0  0  0  0  0  0  0  0  0  0
    3.3904   -1.9945    0.0000 C   0  0  0  0  0  0  0  0  0  0  0  0
    5.4918   -1.5786    0.0000 C   0  0  0  0  0  0  0  0  0  0  0  0
    5.0069   -2.2460    0.0000 C   0  0  0  0  0  0  0  0  0  0  0  0
    2.8083   -0.5781    0.0000 C   0  0  0  0  0  0  0  0  0  0  0  0
    5.2619   -0.1265    0.0000 C   0  0  0  0  0  0  0  0  0  0  0  0
    6.7293   -0.8641    0.0000 C   0  0  0  0  0  0  0  0  0  0  0  0
    6.3938   -0.1104    0.0000 C   0  0  0  0  0  0  0  0  0  0  0  0
    7.0069    0.4416    0.0000 C   0  0  0  0  0  0  0  0  0  0  0  0
    7.5499   -0.7779    0.0000 C   0  0  0  0  0  0  0  0  0  0  0  0
    3.0235    0.2184    0.0000 C   0  0  0  0  0  0  0  0  0  0  0  0
    5.2619   -3.0307    0.0000 C   0  0  0  0  0  0  0  0  0  0  0  0
    6.9206    1.2621    0.0000 C   0  0  0  0  0  0  0  0  0  0  0  0
    0.0000    0.0000    0.0000 H   0  0  0  0  0  0  0  0  0  0  0  0
    0.0000    0.0000    0.0000 H   0  0  0  0  0  0  0  0  0  0  0  0
    0.0000    0.0000    0.0000 H   0  0  0  0  0  0  0  0  0  0  0  0
    0.0000    0.0000    0.0000 H   0  0  0  0  0  0  0  0  0  0  0  0
    0.0000    0.0000    0.0000 H   0  0  0  0  0  0  0  0  0  0  0  0
    0.0000    0.0000    0.0000 H   0  0  0  0  0  0  0  0  0  0  0  0
    0.0000    0.0000    0.0000 H   0  0  0  0  0  0  0  0  0  0  0  0
    0.0000    0.0000    0.0000 H   0  0  0  0  0  0  0  0  0  0  0  0
    0.0000    0.0000    0.0000 H   0  0  0  0  0  0  0  0  0  0  0  0
    0.0000    0.0000    0.0000 H   0  0  0  0  0  0  0  0  0  0  0  0
    0.0000    0.0000    0.0000 H   0  0  0  0  0  0  0  0  0  0  0  0
    0.0000    0.0000    0.0000 H   0  0  0  0  0  0  0  0  0  0  0  0
    0.0000    0.0000    0.0000 H   0  0  0  0  0  0  0  0  0  0  0  0
    0.0000    0.0000    0.0000 H   0  0  0  0  0  0  0  0  0  0  0  0
    0.0000    0.0000    0.0000 H   0  0  0  0  0  0  0  0  0  0  0  0
    0.0000    0.0000    0.0000 H   0  0  0  0  0  0  0  0  0  0  0  0
    0.0000    0.0000    0.0000 H   0  0  0  0  0  0  0  0  0  0  0  0
    0.0000    0.0000    0.0000 H   0  0  0  0  0  0  0  0  0  0  0  0
    0.0000    0.0000    0.0000 H   0  0  0  0  0  0  0  0  0  0  0  0
    0.0000    0.0000    0.0000 H   0  0  0  0  0  0  0  0  0  0  0  0
    0.0000    0.0000    0.0000 H   0  0  0  0  0  0  0  0  0  0  0  0
    0.0000    0.0000    0.0000 H   0  0  0  0  0  0  0  0  0  0  0  0
    0.0000    0.0000    0.0000 H   0  0  0  0  0  0  0  0  0  0  0  0
    0.0000    0.0000    0.0000 H   0  0  0  0  0  0  0  0  0  0  0  0
  1 17  1  0
 21  1  1  1
  2  7  2  0
  2  8  2  0
  2 11  1  0
  2 12  1  0
  3 16  2  0
 19  4  1  6
  5 26  1  0
  6 26  2  0
  9 13  1  0
  9 16  1  0
  9 18  1  0
 10 23  1  0
 10 24  1  0
 11 27  1  0
 13 14  1  0
 13 15  1  0
 14 16  1  0
 14 19  1  0
 15 17  1  0
 15 20  1  1
 17 18  2  0
 18 26  1  0
 19 25  1  0
 21 22  1  0
 21 24  1  0
 22 23  1  0
 23 27  1  1
  4 28  1  0
  5 29  1  0
 10 30  1  0
 11 31  1  0
 12 32  1  0
 12 33  1  0
 13 34  1  6
 14 35  1  1
 15 36  1  0
 19 37  1  0
 20 38  1  0
 20 39  1  0
 20 40  1  0
 21 41  1  0
 22 42  1  0
 22 43  1  0
 23 44  1  0
 24 45  1  0
 24 46  1  0
 25 47  1  0
 25 48  1  0
 25 49  1  0
 27 50  1  0
 27 51  1  0
M  END
>  <ALOGPS_LOGP>  (1) 
-1.27

>  <ALOGPS_LOGS>  (1) 
-2.13

>  <ALOGPS_SOLUBILITY>  (1) 
3.13e+00 g/l

>  <DATABASE_ID>  (1) 
DB06211

>  <DATABASE_NAME>  (1) 
drugbank

>  <DRUGBANK_ID>  (1) 
DB06211

>  <DRUG_GROUPS>  (1) 
approved; investigational

>  <EXACT_MASS>  (1) 
420.1137259

>  <FORMULA>  (1) 
C15H24N4O6S2

>  <GENERIC_NAME>  (1) 
Doripenem

>  <INCHI_IDENTIFIER>  (1) 
InChI=1S/C15H24N4O6S2/c1-6-11-10(7(2)20)14(21)19(11)12(15(22)23)13(6)26-9-3-8(17-5-9)4-18-27(16,24)25/h6-11,17-18,20H,3-5H2,1-2H3,(H,22,23)(H2,16,24,25)/t6-,7-,8+,9+,10-,11-/m1/s1

>  <INCHI_KEY>  (1) 
AVAACINZEOAHHE-VFZPANTDSA-N

>  <INTERNATIONAL_BRANDS>  (1) 
Finibax

>  <JCHEM_ACCEPTOR_COUNT>  (1) 
8

>  <JCHEM_AVERAGE_POLARIZABILITY>  (1) 
42.368660999833374

>  <JCHEM_BIOAVAILABILITY>  (1) 
1

>  <JCHEM_DONOR_COUNT>  (1) 
5

>  <JCHEM_FORMAL_CHARGE>  (1) 
0

>  <JCHEM_GHOSE_FILTER>  (1) 
0

>  <JCHEM_IUPAC>  (1) 
(4R,5S,6S)-6-[(1R)-1-hydroxyethyl]-4-methyl-7-oxo-3-{[(3S,5S)-5-[(sulfamoylamino)methyl]pyrrolidin-3-yl]sulfanyl}-1-azabicyclo[3.2.0]hept-2-ene-2-carboxylic acid

>  <JCHEM_LOGP>  (1) 
-5.563863798594951

>  <JCHEM_MDDR_LIKE_RULE>  (1) 
1

>  <JCHEM_NUMBER_OF_RINGS>  (1) 
3

>  <JCHEM_PHYSIOLOGICAL_CHARGE>  (1) 
0

>  <JCHEM_PKA>  (1) 
11.074376003117276

>  <JCHEM_PKA_STRONGEST_ACIDIC>  (1) 
3.535050480248994

>  <JCHEM_PKA_STRONGEST_BASIC>  (1) 
9.514033058755267

>  <JCHEM_POLAR_SURFACE_AREA>  (1) 
162.05999999999997

>  <JCHEM_REFRACTIVITY>  (1) 
99.88020000000002

>  <JCHEM_ROTATABLE_BOND_COUNT>  (1) 
6

>  <JCHEM_RULE_OF_FIVE>  (1) 
1

>  <JCHEM_TRADITIONAL_IUPAC>  (1) 
doripenem

>  <JCHEM_VEBER_RULE>  (1) 
0

>  <MOLECULAR_WEIGHT>  (1) 
420.504

>  <PRODUCTS>  (1) 
Doribax; Doripenem

>  <SALTS>  (1) 
doripenem hydrate

>  <SMILES>  (1) 
[H][C@]12[C@@H](C)C(S[C@]3([H])CN[C@H](CNS(N)(=O)=O)C3)=C(N1C(=O)[C@]2([H])[C@@H](C)O)C(O)=O

$$$$
