
     RDKit          2D

  6  4  0  0  0  0  0  0  0  0999 V2000
    0.0000    0.0000    0.0000 Cu  0  0  0  0  0  0  0  0  0  0  0  0
    2.8286   -0.8250    0.0000 O   0  0  0  0  0  0  0  0  0  0  0  0
    2.8286    0.0000    0.0000 S   0  0  0  0  0  0  0  0  0  0  0  0
    2.8286    0.8250    0.0000 O   0  0  0  0  0  0  0  0  0  0  0  0
    3.6536    0.0000    0.0000 O   0  0  0  0  0  0  0  0  0  0  0  0
    2.0036    0.0000    0.0000 O   0  0  0  0  0  0  0  0  0  0  0  0
  2  3  1  0
  3  4  1  0
  3  5  2  0
  3  6  2  0
M  CHG  3   1   2   2  -1   4  -1
M  END
>  <DATABASE_ID>  (1) 
DB06778

>  <DATABASE_NAME>  (1) 
drugbank

>  <DRUGBANK_ID>  (1) 
DB06778

>  <DRUG_GROUPS>  (1) 
approved

>  <EXACT_MASS>  (1) 
158.881330257

>  <FORMULA>  (1) 
CuO4S

>  <GENERIC_NAME>  (1) 
Cupric sulfate

>  <INCHI_IDENTIFIER>  (1) 
InChI=1S/Cu.H2O4S/c;1-5(2,3)4/h;(H2,1,2,3,4)/q+2;/p-2

>  <INCHI_KEY>  (1) 
ARUVKPQLZAKDPS-UHFFFAOYSA-L

>  <JCHEM_ACCEPTOR_COUNT>  (1) 
4

>  <JCHEM_AVERAGE_POLARIZABILITY>  (1) 
5.805291890677037

>  <JCHEM_BIOAVAILABILITY>  (1) 
1

>  <JCHEM_DONOR_COUNT>  (1) 
0

>  <JCHEM_FORMAL_CHARGE>  (1) 
0

>  <JCHEM_GHOSE_FILTER>  (1) 
0

>  <JCHEM_IUPAC>  (1) 
copper(2+) ion sulfate

>  <JCHEM_LOGP>  (1) 
-0.8415520233333333

>  <JCHEM_MDDR_LIKE_RULE>  (1) 
0

>  <JCHEM_NUMBER_OF_RINGS>  (1) 
0

>  <JCHEM_PHYSIOLOGICAL_CHARGE>  (1) 
-2

>  <JCHEM_PKA>  (1) 
1.8964254257138706

>  <JCHEM_PKA_STRONGEST_ACIDIC>  (1) 
-3.034349054191991

>  <JCHEM_POLAR_SURFACE_AREA>  (1) 
80.25999999999999

>  <JCHEM_REFRACTIVITY>  (1) 
11.5274

>  <JCHEM_ROTATABLE_BOND_COUNT>  (1) 
0

>  <JCHEM_RULE_OF_FIVE>  (1) 
1

>  <JCHEM_TRADITIONAL_IUPAC>  (1) 
copper(2+) ion sulfate

>  <JCHEM_VEBER_RULE>  (1) 
0

>  <MOLECULAR_WEIGHT>  (1) 
159.609

>  <PRODUCTS>  (1) 
C-Nate DHA; Concept DHA; Concept OB; Cupric Sulfate; Eau Resolutive Soker; HemeNatal OB; Multiple Vitamins & Minerals Tablets; Multiple Vitamins With Minerals Tablets; Multitrace -4; Multitrace -4 Pediatric; Multitrace-4; Multitrace-4 Neonatal; Multitrace-5; One A Day Advance Adults; One A Day Advance Adults 50+; Prefera OB plus DHA; PreferaOB; PreferaOB plus DHA; PureVit DualFe Plus; Se-Tan PLUS; Spd Tab; Strovite One Caplets; Tandem OB; Tandem Plus; Tl-hem 150; Trace Elements 4; Tricare Prenatal; Vitamines Et Mineraux

>  <SALTS>  (1) 
Cupric sulfate pentahydrate

>  <SMILES>  (1) 
[Cu++].[O-]S([O-])(=O)=O

>  <SYNONYMS>  (1) 
Copper monosulfate; Copper monosulphate; Copper sulfate; Copper sulfate (1:1); Copper sulphate; Copper(2+) sulfate; Copper(II) sulphate; Cupric sulfate, anhydrous; Cupric sulphate anhydrous; Cupric sulphate, anhydrous

$$$$
