[NO NAME]
     RDKit          2D

 60 64  0  0  0  0  0  0  0  0999 V2000
   11.9391   -1.8446    0.0000 O   0  0  0  0  0  0  0  0  0  0  0  0
   13.6581   -0.4662    0.0000 O   0  0  0  0  0  0  0  0  0  0  0  0
    7.5860    0.4694    0.0000 N   0  0  0  0  0  0  0  0  0  0  0  0
    9.0150   -0.3557    0.0000 N   0  0  0  0  0  0  0  0  0  0  0  0
    3.1267    1.8702    0.0000 N   0  0  0  0  0  0  0  0  0  0  0  0
   13.6581   -1.8951    0.0000 N   0  0  0  0  0  0  0  0  0  0  0  0
    1.6884   -1.9751    0.0000 N   0  0  0  0  0  0  0  0  0  0  0  0
    7.5860   -0.3557    0.0000 C   0  0  0  0  0  0  0  0  0  0  0  0
    8.3005    0.8819    0.0000 C   0  0  0  0  0  0  0  0  0  0  0  0
    8.3005   -0.7682    0.0000 C   0  0  0  0  0  0  0  0  0  0  0  0
    9.0150    0.4694    0.0000 C   0  0  0  0  0  0  0  0  0  0  0  0
    6.8715    0.8819    0.0000 C   0  0  0  0  0  0  0  0  0  0  0  0
    6.1570    0.4694    0.0000 C   0  0  0  0  0  0  0  0  0  0  0  0
    5.4425    0.8819    0.0000 C   0  0  0  0  0  0  0  0  0  0  0  0
    9.7294   -0.7682    0.0000 C   0  0  0  0  0  0  0  0  0  0  0  0
    4.7280    0.4694    0.0000 C   0  0  0  0  0  0  0  0  0  0  0  0
    4.0135    0.8819    0.0000 C   0  0  0  0  0  0  0  0  0  0  0  0
   10.4439   -0.3557    0.0000 C   0  0  0  0  0  0  0  0  0  0  0  0
    9.7294   -1.5932    0.0000 C   0  0  0  0  0  0  0  0  0  0  0  0
    3.2646    0.5476    0.0000 C   0  0  0  0  0  0  0  0  0  0  0  0
   11.1585   -0.7682    0.0000 C   0  0  0  0  0  0  0  0  0  0  0  0
    3.9285    1.6976    0.0000 C   0  0  0  0  0  0  0  0  0  0  0  0
   11.1585   -1.5932    0.0000 C   0  0  0  0  0  0  0  0  0  0  0  0
   10.4439   -2.0057    0.0000 C   0  0  0  0  0  0  0  0  0  0  0  0
    2.7136    1.1617    0.0000 C   0  0  0  0  0  0  0  0  0  0  0  0
   11.9391   -0.5168    0.0000 C   0  0  0  0  0  0  0  0  0  0  0  0
    3.0083   -0.2366    0.0000 C   0  0  0  0  0  0  0  0  0  0  0  0
    1.9064    0.9915    0.0000 C   0  0  0  0  0  0  0  0  0  0  0  0
   12.4206   -1.1807    0.0000 C   0  0  0  0  0  0  0  0  0  0  0  0
    2.2010   -0.4067    0.0000 C   0  0  0  0  0  0  0  0  0  0  0  0
    1.6500    0.2073    0.0000 C   0  0  0  0  0  0  0  0  0  0  0  0
   13.2456   -1.1807    0.0000 C   0  0  0  0  0  0  0  0  0  0  0  0
    1.9447   -1.1909    0.0000 C   0  0  0  0  0  0  0  0  0  0  0  0
    0.0000    0.0000    0.0000 H   0  0  0  0  0  0  0  0  0  0  0  0
    0.0000    0.0000    0.0000 H   0  0  0  0  0  0  0  0  0  0  0  0
    0.0000    0.0000    0.0000 H   0  0  0  0  0  0  0  0  0  0  0  0
    0.0000    0.0000    0.0000 H   0  0  0  0  0  0  0  0  0  0  0  0
    0.0000    0.0000    0.0000 H   0  0  0  0  0  0  0  0  0  0  0  0
    0.0000    0.0000    0.0000 H   0  0  0  0  0  0  0  0  0  0  0  0
    0.0000    0.0000    0.0000 H   0  0  0  0  0  0  0  0  0  0  0  0
    0.0000    0.0000    0.0000 H   0  0  0  0  0  0  0  0  0  0  0  0
    0.0000    0.0000    0.0000 H   0  0  0  0  0  0  0  0  0  0  0  0
    0.0000    0.0000    0.0000 H   0  0  0  0  0  0  0  0  0  0  0  0
    0.0000    0.0000    0.0000 H   0  0  0  0  0  0  0  0  0  0  0  0
    0.0000    0.0000    0.0000 H   0  0  0  0  0  0  0  0  0  0  0  0
    0.0000    0.0000    0.0000 H   0  0  0  0  0  0  0  0  0  0  0  0
    0.0000    0.0000    0.0000 H   0  0  0  0  0  0  0  0  0  0  0  0
    0.0000    0.0000    0.0000 H   0  0  0  0  0  0  0  0  0  0  0  0
    0.0000    0.0000    0.0000 H   0  0  0  0  0  0  0  0  0  0  0  0
    0.0000    0.0000    0.0000 H   0  0  0  0  0  0  0  0  0  0  0  0
    0.0000    0.0000    0.0000 H   0  0  0  0  0  0  0  0  0  0  0  0
    0.0000    0.0000    0.0000 H   0  0  0  0  0  0  0  0  0  0  0  0
    0.0000    0.0000    0.0000 H   0  0  0  0  0  0  0  0  0  0  0  0
    0.0000    0.0000    0.0000 H   0  0  0  0  0  0  0  0  0  0  0  0
    0.0000    0.0000    0.0000 H   0  0  0  0  0  0  0  0  0  0  0  0
    0.0000    0.0000    0.0000 H   0  0  0  0  0  0  0  0  0  0  0  0
    0.0000    0.0000    0.0000 H   0  0  0  0  0  0  0  0  0  0  0  0
    0.0000    0.0000    0.0000 H   0  0  0  0  0  0  0  0  0  0  0  0
    0.0000    0.0000    0.0000 H   0  0  0  0  0  0  0  0  0  0  0  0
    0.0000    0.0000    0.0000 H   0  0  0  0  0  0  0  0  0  0  0  0
  1 23  1  0
  1 29  1  0
  2 32  2  0
  3  8  1  0
  3  9  1  0
  3 12  1  0
  4 10  1  0
  4 11  1  0
  4 15  1  0
  5 22  1  0
  5 25  1  0
  6 32  1  0
  7 33  3  0
  8 10  1  0
  9 11  1  0
 12 13  1  0
 13 14  1  0
 14 16  1  0
 15 18  2  0
 15 19  1  0
 16 17  1  0
 17 20  1  0
 17 22  2  0
 18 21  1  0
 19 24  2  0
 20 25  2  0
 20 27  1  0
 21 23  2  0
 21 26  1  0
 23 24  1  0
 25 28  1  0
 26 29  2  0
 27 30  2  0
 28 31  2  0
 29 32  1  0
 30 31  1  0
 30 33  1  0
  5 34  1  0
  6 35  1  0
  6 36  1  0
  8 37  1  0
  8 38  1  0
  9 39  1  0
  9 40  1  0
 10 41  1  0
 10 42  1  0
 11 43  1  0
 11 44  1  0
 12 45  1  0
 12 46  1  0
 13 47  1  0
 13 48  1  0
 14 49  1  0
 14 50  1  0
 16 51  1  0
 16 52  1  0
 18 53  1  0
 19 54  1  0
 22 55  1  0
 24 56  1  0
 26 57  1  0
 27 58  1  0
 28 59  1  0
 31 60  1  0
M  END
>  <ALOGPS_LOGP>  (1) 
4.21

>  <ALOGPS_LOGS>  (1) 
-3.56

>  <ALOGPS_SOLUBILITY>  (1) 
1.23e-01 g/l

>  <DATABASE_ID>  (1) 
DB06684

>  <DATABASE_NAME>  (1) 
drugbank

>  <DRUGBANK_ID>  (1) 
DB06684

>  <DRUG_GROUPS>  (1) 
approved

>  <EXACT_MASS>  (1) 
441.216475133

>  <FORMULA>  (1) 
C26H27N5O2

>  <GENERIC_NAME>  (1) 
Vilazodone

>  <INCHI_IDENTIFIER>  (1) 
InChI=1S/C26H27N5O2/c27-16-18-4-6-23-22(13-18)19(17-29-23)3-1-2-8-30-9-11-31(12-10-30)21-5-7-24-20(14-21)15-25(33-24)26(28)32/h4-7,13-15,17,29H,1-3,8-12H2,(H2,28,32)

>  <INCHI_KEY>  (1) 
SGEGOXDYSFKCPT-UHFFFAOYSA-N

>  <JCHEM_ACCEPTOR_COUNT>  (1) 
4

>  <JCHEM_AVERAGE_POLARIZABILITY>  (1) 
50.024221394025105

>  <JCHEM_BIOAVAILABILITY>  (1) 
1

>  <JCHEM_DONOR_COUNT>  (1) 
2

>  <JCHEM_FORMAL_CHARGE>  (1) 
0

>  <JCHEM_GHOSE_FILTER>  (1) 
1

>  <JCHEM_IUPAC>  (1) 
5-{4-[4-(5-cyano-1H-indol-3-yl)butyl]piperazin-1-yl}-1-benzofuran-2-carboxamide

>  <JCHEM_LOGP>  (1) 
3.715303905999999

>  <JCHEM_MDDR_LIKE_RULE>  (1) 
1

>  <JCHEM_NUMBER_OF_RINGS>  (1) 
5

>  <JCHEM_PHYSIOLOGICAL_CHARGE>  (1) 
1

>  <JCHEM_PKA>  (1) 
17.006896668546844

>  <JCHEM_PKA_STRONGEST_ACIDIC>  (1) 
14.192647847280742

>  <JCHEM_PKA_STRONGEST_BASIC>  (1) 
8.604416954748784

>  <JCHEM_POLAR_SURFACE_AREA>  (1) 
102.28999999999999

>  <JCHEM_REFRACTIVITY>  (1) 
129.71140000000003

>  <JCHEM_ROTATABLE_BOND_COUNT>  (1) 
7

>  <JCHEM_RULE_OF_FIVE>  (1) 
1

>  <JCHEM_TRADITIONAL_IUPAC>  (1) 
vilazodone

>  <JCHEM_VEBER_RULE>  (1) 
0

>  <MOLECULAR_WEIGHT>  (1) 
441.5249

>  <PRODUCTS>  (1) 
Viibryd

>  <SALTS>  (1) 
Vilazodone hydrochloride

>  <SMILES>  (1) 
NC(=O)C1=CC2=C(O1)C=CC(=C2)N1CCN(CCCCC2=CNC3=C2C=C(C=C3)C#N)CC1

$$$$
