
     RDKit          2D

 26 26  0  0  1  0  0  0  0  0999 V2000
    1.4289   -2.4750    0.0000 C   0  0  0  0  0  0  0  0  0  0  0  0
    1.4289   -1.6500    0.0000 C   0  0  0  0  0  0  0  0  0  0  0  0
    0.7145   -1.2375    0.0000 C   0  0  0  0  0  0  0  0  0  0  0  0
    0.7145   -0.4125    0.0000 C   0  0  0  0  0  0  0  0  0  0  0  0
    0.0000    0.0000    0.0000 C   0  0  0  0  0  0  0  0  0  0  0  0
    0.0000    0.8250    0.0000 C   0  0  0  0  0  0  0  0  0  0  0  0
    0.7145    1.2375    0.0000 C   0  0  0  0  0  0  0  0  0  0  0  0
    1.4289    0.8250    0.0000 C   0  0  0  0  0  0  0  0  0  0  0  0
    1.4289    0.0000    0.0000 C   0  0  0  0  0  0  0  0  0  0  0  0
    0.7145    2.0625    0.0000 O   0  0  0  0  0  0  0  0  0  0  0  0
   -0.7145    1.2375    0.0000 O   0  0  0  0  0  0  0  0  0  0  0  0
    0.0000   -1.6500    0.0000 O   0  0  0  0  0  0  0  0  0  0  0  0
    2.1434   -1.2375    0.0000 N   0  0  0  0  0  0  0  0  0  0  0  0
    0.0000    0.0000    0.0000 H   0  0  0  0  0  0  0  0  0  0  0  0
    0.0000    0.0000    0.0000 H   0  0  0  0  0  0  0  0  0  0  0  0
    0.0000    0.0000    0.0000 H   0  0  0  0  0  0  0  0  0  0  0  0
    0.0000    0.0000    0.0000 H   0  0  0  0  0  0  0  0  0  0  0  0
    0.0000    0.0000    0.0000 H   0  0  0  0  0  0  0  0  0  0  0  0
    0.0000    0.0000    0.0000 H   0  0  0  0  0  0  0  0  0  0  0  0
    0.0000    0.0000    0.0000 H   0  0  0  0  0  0  0  0  0  0  0  0
    0.0000    0.0000    0.0000 H   0  0  0  0  0  0  0  0  0  0  0  0
    0.0000    0.0000    0.0000 H   0  0  0  0  0  0  0  0  0  0  0  0
    0.0000    0.0000    0.0000 H   0  0  0  0  0  0  0  0  0  0  0  0
    0.0000    0.0000    0.0000 H   0  0  0  0  0  0  0  0  0  0  0  0
    0.0000    0.0000    0.0000 H   0  0  0  0  0  0  0  0  0  0  0  0
    0.0000    0.0000    0.0000 H   0  0  0  0  0  0  0  0  0  0  0  0
  2  1  1  6
  2  3  1  0
  3  4  1  6
  4  5  2  0
  5  6  1  0
  6  7  2  0
  7  8  1  0
  8  9  2  0
  4  9  1  0
  7 10  1  0
  6 11  1  0
  3 12  1  0
  2 13  1  0
  1 14  1  0
  1 15  1  0
  1 16  1  0
  2 17  1  0
  3 18  1  0
  5 19  1  0
  8 20  1  0
  9 21  1  0
 10 22  1  0
 11 23  1  0
 12 24  1  0
 13 25  1  0
 13 26  1  0
M  END
>  <ALOGPS_LOGP>  (1) 
-0.77

>  <ALOGPS_LOGS>  (1) 
-1.10

>  <ALOGPS_SOLUBILITY>  (1) 
1.46e+01 g/l

>  <DATABASE_ID>  (1) 
DB06707

>  <DATABASE_NAME>  (1) 
drugbank

>  <DRUGBANK_ID>  (1) 
DB06707

>  <DRUG_GROUPS>  (1) 
approved

>  <EXACT_MASS>  (1) 
183.089543287

>  <FORMULA>  (1) 
C9H13NO3

>  <GENERIC_NAME>  (1) 
Levonordefrin

>  <INCHI_IDENTIFIER>  (1) 
InChI=1S/C9H13NO3/c1-5(10)9(13)6-2-3-7(11)8(12)4-6/h2-5,9,11-13H,10H2,1H3/t5-,9-/m0/s1

>  <INCHI_KEY>  (1) 
GEFQWZLICWMTKF-CDUCUWFYSA-N

>  <INTERNATIONAL_BRANDS>  (1) 
Neo-Cobefrin; Nordefrin

>  <JCHEM_ACCEPTOR_COUNT>  (1) 
4

>  <JCHEM_AVERAGE_POLARIZABILITY>  (1) 
18.81379935913054

>  <JCHEM_BIOAVAILABILITY>  (1) 
1

>  <JCHEM_DONOR_COUNT>  (1) 
4

>  <JCHEM_FORMAL_CHARGE>  (1) 
0

>  <JCHEM_GHOSE_FILTER>  (1) 
1

>  <JCHEM_IUPAC>  (1) 
4-[(1R,2S)-2-amino-1-hydroxypropyl]benzene-1,2-diol

>  <JCHEM_LOGP>  (1) 
-0.3926740433633575

>  <JCHEM_MDDR_LIKE_RULE>  (1) 
0

>  <JCHEM_NUMBER_OF_RINGS>  (1) 
1

>  <JCHEM_PHYSIOLOGICAL_CHARGE>  (1) 
1

>  <JCHEM_PKA>  (1) 
12.64418923416807

>  <JCHEM_PKA_STRONGEST_ACIDIC>  (1) 
9.634195892778244

>  <JCHEM_PKA_STRONGEST_BASIC>  (1) 
8.955819334444788

>  <JCHEM_POLAR_SURFACE_AREA>  (1) 
86.71

>  <JCHEM_REFRACTIVITY>  (1) 
48.8745

>  <JCHEM_ROTATABLE_BOND_COUNT>  (1) 
2

>  <JCHEM_RULE_OF_FIVE>  (1) 
1

>  <JCHEM_TRADITIONAL_IUPAC>  (1) 
levonordefrin

>  <JCHEM_VEBER_RULE>  (1) 
0

>  <MOLECULAR_WEIGHT>  (1) 
183.2044

>  <PRODUCTS>  (1) 
2% Polocaine Dental With Levonordefrin 1:20,000; Carbocaine 2% With Neo-cobefrin; Carbocaine with Neo-Cobefrin; Isocaine HCl Inj 2%; Mepivacaine Hydrochloride and Levonordefrin; Mepivacaine Hydrochloride with Levonordefrin; Mepivacaine With Levonordefrin; Mepivacaine with levonordefrin; Scandonest 2% With Levonordefrin; Scandonest L

>  <SMILES>  (1) 
C[C@H](N)[C@H](O)C1=CC(O)=C(O)C=C1

>  <SYNONYMS>  (1) 
(-)-cobefrin; alpha-Methylnoradrenaline; Corbadrine; L-alpha-methylnoradrenaline; L-Nordefrin; Neo-cobefrin

$$$$
