
     RDKit          2D

 57 60  0  0  0  0  0  0  0  0999 V2000
    2.9159   -0.6030    0.0000 N   0  0  0  0  0  0  0  0  0  0  0  0
    3.2515   -1.3567    0.0000 C   0  0  0  0  0  0  0  0  0  0  0  0
    2.1089   -0.4314    0.0000 C   0  0  0  0  0  0  0  0  0  0  0  0
    3.3284    0.1113    0.0000 C   0  0  0  0  0  0  0  0  0  0  0  0
    4.0720   -1.4429    0.0000 C   0  0  0  0  0  0  0  0  0  0  0  0
    2.7666   -2.0241    0.0000 C   0  0  0  0  0  0  0  0  0  0  0  0
    2.0227    0.3890    0.0000 C   0  0  0  0  0  0  0  0  0  0  0  0
    1.4958   -0.9835    0.0000 C   0  0  0  0  0  0  0  0  0  0  0  0
    2.7764    0.7244    0.0000 C   0  0  0  0  0  0  0  0  0  0  0  0
    4.1489    0.1976    0.0000 C   0  0  0  0  0  0  0  0  0  0  0  0
    4.4075   -2.1965    0.0000 C   0  0  0  0  0  0  0  0  0  0  0  0
    3.1021   -2.7778    0.0000 C   0  0  0  0  0  0  0  0  0  0  0  0
    1.3082    0.8014    0.0000 C   0  0  0  0  0  0  0  0  0  0  0  0
    3.9226   -2.8640    0.0000 C   0  0  0  0  0  0  0  0  0  0  0  0
    0.5938    0.3890    0.0000 C   0  0  0  0  0  0  0  0  0  0  0  0
   -0.1206    0.8014    0.0000 C   0  0  0  0  0  0  0  0  0  0  0  0
   -0.8351    0.3890    0.0000 N   0  0  0  0  0  0  0  0  0  0  0  0
   -0.1206    1.6265    0.0000 C   0  0  0  0  0  0  0  0  0  0  0  0
   -1.5495    0.8014    0.0000 C   0  0  0  0  0  0  0  0  0  0  0  0
   -0.8351   -0.4360    0.0000 C   0  0  0  0  0  0  0  0  0  0  0  0
   -0.8351    2.0390    0.0000 C   0  0  0  0  0  0  0  0  0  0  0  0
   -1.5495    1.6265    0.0000 C   0  0  0  0  0  0  0  0  0  0  0  0
   -2.2640    0.3890    0.0000 C   0  0  0  0  0  0  0  0  0  0  0  0
   -2.2640    2.0390    0.0000 C   0  0  0  0  0  0  0  0  0  0  0  0
   -2.9785    0.8014    0.0000 C   0  0  0  0  0  0  0  0  0  0  0  0
   -2.9785    1.6265    0.0000 C   0  0  0  0  0  0  0  0  0  0  0  0
   -3.6930    2.0390    0.0000 N   0  0  0  0  0  0  0  0  0  0  0  0
   -3.6930    2.8640    0.0000 C   0  0  0  0  0  0  0  0  0  0  0  0
   -4.4075    1.6265    0.0000 C   0  0  0  0  0  0  0  0  0  0  0  0
    0.0000    0.0000    0.0000 H   0  0  0  0  0  0  0  0  0  0  0  0
    0.0000    0.0000    0.0000 H   0  0  0  0  0  0  0  0  0  0  0  0
    0.0000    0.0000    0.0000 H   0  0  0  0  0  0  0  0  0  0  0  0
    0.0000    0.0000    0.0000 H   0  0  0  0  0  0  0  0  0  0  0  0
    0.0000    0.0000    0.0000 H   0  0  0  0  0  0  0  0  0  0  0  0
    0.0000    0.0000    0.0000 H   0  0  0  0  0  0  0  0  0  0  0  0
    0.0000    0.0000    0.0000 H   0  0  0  0  0  0  0  0  0  0  0  0
    0.0000    0.0000    0.0000 H   0  0  0  0  0  0  0  0  0  0  0  0
    0.0000    0.0000    0.0000 H   0  0  0  0  0  0  0  0  0  0  0  0
    0.0000    0.0000    0.0000 H   0  0  0  0  0  0  0  0  0  0  0  0
    0.0000    0.0000    0.0000 H   0  0  0  0  0  0  0  0  0  0  0  0
    0.0000    0.0000    0.0000 H   0  0  0  0  0  0  0  0  0  0  0  0
    0.0000    0.0000    0.0000 H   0  0  0  0  0  0  0  0  0  0  0  0
    0.0000    0.0000    0.0000 H   0  0  0  0  0  0  0  0  0  0  0  0
    0.0000    0.0000    0.0000 H   0  0  0  0  0  0  0  0  0  0  0  0
    0.0000    0.0000    0.0000 H   0  0  0  0  0  0  0  0  0  0  0  0
    0.0000    0.0000    0.0000 H   0  0  0  0  0  0  0  0  0  0  0  0
    0.0000    0.0000    0.0000 H   0  0  0  0  0  0  0  0  0  0  0  0
    0.0000    0.0000    0.0000 H   0  0  0  0  0  0  0  0  0  0  0  0
    0.0000    0.0000    0.0000 H   0  0  0  0  0  0  0  0  0  0  0  0
    0.0000    0.0000    0.0000 H   0  0  0  0  0  0  0  0  0  0  0  0
    0.0000    0.0000    0.0000 H   0  0  0  0  0  0  0  0  0  0  0  0
    0.0000    0.0000    0.0000 H   0  0  0  0  0  0  0  0  0  0  0  0
    0.0000    0.0000    0.0000 H   0  0  0  0  0  0  0  0  0  0  0  0
    0.0000    0.0000    0.0000 H   0  0  0  0  0  0  0  0  0  0  0  0
    0.0000    0.0000    0.0000 H   0  0  0  0  0  0  0  0  0  0  0  0
    0.0000    0.0000    0.0000 H   0  0  0  0  0  0  0  0  0  0  0  0
    0.0000    0.0000    0.0000 H   0  0  0  0  0  0  0  0  0  0  0  0
  1  2  1  0
  1  3  1  0
  1  4  1  0
  2  5  2  0
  2  6  1  0
  3  7  2  0
  3  8  1  0
  4  9  2  0
  4 10  1  0
  5 11  1  0
  6 12  2  0
  7 13  1  0
  7  9  1  0
 11 14  2  0
 12 14  1  0
 13 15  2  0
 15 16  1  0
 16 17  2  0
 16 18  1  0
 17 19  1  0
 17 20  1  0
 18 21  2  0
 19 22  2  0
 19 23  1  0
 21 22  1  0
 22 24  1  0
 23 25  2  0
 24 26  2  0
 25 26  1  0
 26 27  1  0
 27 28  1  0
 27 29  1  0
  5 30  1  0
  6 31  1  0
  8 32  1  0
  8 33  1  0
  8 34  1  0
  9 35  1  0
 10 36  1  0
 10 37  1  0
 10 38  1  0
 11 39  1  0
 12 40  1  0
 13 41  1  0
 14 42  1  0
 15 43  1  0
 18 44  1  0
 20 45  1  0
 20 46  1  0
 20 47  1  0
 21 48  1  0
 23 49  1  0
 24 50  1  0
 25 51  1  0
 28 52  1  0
 28 53  1  0
 28 54  1  0
 29 55  1  0
 29 56  1  0
 29 57  1  0
M  CHG  1  17   1
M  END
>  <ALOGPS_LOGP>  (1) 
2.04

>  <ALOGPS_LOGS>  (1) 
-6.16

>  <ALOGPS_SOLUBILITY>  (1) 
2.88e-04 g/l

>  <DATABASE_ID>  (1) 
DB06816

>  <DATABASE_NAME>  (1) 
drugbank

>  <DRUGBANK_ID>  (1) 
DB06816

>  <DRUG_GROUPS>  (1) 
approved

>  <EXACT_MASS>  (1) 
382.227774334

>  <FORMULA>  (1) 
C26H28N3

>  <GENERIC_NAME>  (1) 
Pyrvinium

>  <INCHI_IDENTIFIER>  (1) 
InChI=1S/C26H28N3/c1-19-17-21(20(2)29(19)24-9-7-6-8-10-24)11-13-23-14-12-22-18-25(27(3)4)15-16-26(22)28(23)5/h6-18H,1-5H3/q+1

>  <INCHI_KEY>  (1) 
QMHSXPLYMTVAMK-UHFFFAOYSA-N

>  <JCHEM_ACCEPTOR_COUNT>  (1) 
1

>  <JCHEM_ATOM_COUNT>  (1) 
57

>  <JCHEM_AVERAGE_POLARIZABILITY>  (1) 
47.309474810423765

>  <JCHEM_BIOAVAILABILITY>  (1) 
1

>  <JCHEM_DONOR_COUNT>  (1) 
0

>  <JCHEM_FORMAL_CHARGE>  (1) 
1

>  <JCHEM_GHOSE_FILTER>  (1) 
0

>  <JCHEM_IUPAC>  (1) 
2-[(E)-2-(2,5-dimethyl-1-phenyl-1H-pyrrol-3-yl)ethenyl]-6-(dimethylamino)-1-methylquinolin-1-ium

>  <JCHEM_LOGP>  (1) 
1.407420982528256

>  <JCHEM_MDDR_LIKE_RULE>  (1) 
0

>  <JCHEM_NUMBER_OF_RINGS>  (1) 
4

>  <JCHEM_PHYSIOLOGICAL_CHARGE>  (1) 
1

>  <JCHEM_PKA_STRONGEST_BASIC>  (1) 
1.4831972911350026

>  <JCHEM_POLAR_SURFACE_AREA>  (1) 
12.049999999999999

>  <JCHEM_REFRACTIVITY>  (1) 
136.1218

>  <JCHEM_ROTATABLE_BOND_COUNT>  (1) 
4

>  <JCHEM_RULE_OF_FIVE>  (1) 
1

>  <JCHEM_TRADITIONAL_IUPAC>  (1) 
pyrvinium

>  <JCHEM_VEBER_RULE>  (1) 
1

>  <MOLECULAR_WEIGHT>  (1) 
382.53

>  <PRODUCTS>  (1) 
Vanquin Suspension  50mg/5ml

>  <SALTS>  (1) 
Pyrvinium pamoate

>  <SMILES>  (1) 
CN(C)C1=CC2=C(C=C1)[N+](C)=C(\C=C\C1=C(C)N(C(C)=C1)C1=CC=CC=C1)C=C2

$$$$
