
     RDKit          2D

 71 74  0  0  1  0  0  0  0  0999 V2000
    7.2534    2.1535    0.0000 C   0  0  0  0  0  0  0  0  0  0  0  0
    8.5698   -2.8636    0.0000 C   0  0  0  0  0  0  0  0  0  0  0  0
    4.0950   -3.4721    0.0000 C   0  0  0  0  0  0  0  0  0  0  0  0
    6.2068   -2.2686    0.0000 C   0  0  0  0  0  0  0  0  0  0  0  0
    7.5890    1.3998    0.0000 C   0  0  0  0  0  0  0  0  0  0  0  0
    7.1041    0.7322    0.0000 C   0  0  0  0  0  0  0  0  0  0  0  0
    7.4396   -0.0213    0.0000 C   0  0  0  0  0  0  0  0  0  0  0  0
    6.9547   -0.6888    0.0000 C   0  0  0  0  0  0  0  0  0  0  0  0
    4.9273   -5.5935    0.0000 C   0  0  0  0  0  0  0  0  0  0  0  0
    5.6418   -5.1810    0.0000 C   0  0  0  0  0  0  0  0  0  0  0  0
    2.7839   -4.3560    0.0000 C   0  0  0  0  0  0  0  0  0  0  0  0
    4.9273   -3.1185    0.0000 C   0  0  0  0  0  0  0  0  0  0  0  0
    7.1409   -4.1984    0.0000 C   0  0  0  0  0  0  0  0  0  0  0  0
    3.4984   -3.9435    0.0000 C   0  0  0  0  0  0  0  0  0  0  0  0
    5.6418   -2.7060    0.0000 C   0  0  0  0  0  0  0  0  0  0  0  0
    7.6258   -3.5310    0.0000 C   0  0  0  0  0  0  0  0  0  0  0  0
    3.4984   -5.5935    0.0000 C   0  0  0  0  0  0  0  0  0  0  0  0
    7.8554   -2.4511    0.0000 C   0  0  0  0  0  0  0  0  0  0  0  0
    4.2129   -5.1810    0.0000 C   0  0  0  0  0  0  0  0  0  0  0  0
    2.7839   -5.1810    0.0000 C   0  0  0  0  0  0  0  0  0  0  0  0
    5.6418   -4.3560    0.0000 C   0  0  0  0  0  0  0  0  0  0  0  0
    4.9273   -3.9435    0.0000 C   0  0  0  0  0  0  0  0  0  0  0  0
    6.3563   -3.9435    0.0000 C   0  0  0  0  0  0  0  0  0  0  0  0
    7.2903   -1.4423    0.0000 C   0  0  0  0  0  0  0  0  0  0  0  0
    4.2129   -4.3560    0.0000 C   0  0  0  0  0  0  0  0  0  0  0  0
    6.3563   -3.1185    0.0000 C   0  0  0  0  0  0  0  0  0  0  0  0
    7.1409   -2.8636    0.0000 C   0  0  0  0  0  0  0  0  0  0  0  0
    7.8554   -1.6261    0.0000 O   0  0  0  0  0  0  0  0  0  0  0  0
    2.0694   -5.5935    0.0000 O   0  0  0  0  0  0  0  0  0  0  0  0
    8.0972   -1.2709    0.0000 O   0  0  0  0  0  0  0  0  0  0  0  0
    6.8052   -2.1099    0.0000 O   0  0  0  0  0  0  0  0  0  0  0  0
    0.0000    0.0000    0.0000 H   0  0  0  0  0  0  0  0  0  0  0  0
    0.0000    0.0000    0.0000 H   0  0  0  0  0  0  0  0  0  0  0  0
    0.0000    0.0000    0.0000 H   0  0  0  0  0  0  0  0  0  0  0  0
    0.0000    0.0000    0.0000 H   0  0  0  0  0  0  0  0  0  0  0  0
    0.0000    0.0000    0.0000 H   0  0  0  0  0  0  0  0  0  0  0  0
    0.0000    0.0000    0.0000 H   0  0  0  0  0  0  0  0  0  0  0  0
    0.0000    0.0000    0.0000 H   0  0  0  0  0  0  0  0  0  0  0  0
    0.0000    0.0000    0.0000 H   0  0  0  0  0  0  0  0  0  0  0  0
    0.0000    0.0000    0.0000 H   0  0  0  0  0  0  0  0  0  0  0  0
    0.0000    0.0000    0.0000 H   0  0  0  0  0  0  0  0  0  0  0  0
    0.0000    0.0000    0.0000 H   0  0  0  0  0  0  0  0  0  0  0  0
    0.0000    0.0000    0.0000 H   0  0  0  0  0  0  0  0  0  0  0  0
    0.0000    0.0000    0.0000 H   0  0  0  0  0  0  0  0  0  0  0  0
    0.0000    0.0000    0.0000 H   0  0  0  0  0  0  0  0  0  0  0  0
    0.0000    0.0000    0.0000 H   0  0  0  0  0  0  0  0  0  0  0  0
    0.0000    0.0000    0.0000 H   0  0  0  0  0  0  0  0  0  0  0  0
    0.0000    0.0000    0.0000 H   0  0  0  0  0  0  0  0  0  0  0  0
    0.0000    0.0000    0.0000 H   0  0  0  0  0  0  0  0  0  0  0  0
    0.0000    0.0000    0.0000 H   0  0  0  0  0  0  0  0  0  0  0  0
    0.0000    0.0000    0.0000 H   0  0  0  0  0  0  0  0  0  0  0  0
    0.0000    0.0000    0.0000 H   0  0  0  0  0  0  0  0  0  0  0  0
    0.0000    0.0000    0.0000 H   0  0  0  0  0  0  0  0  0  0  0  0
    0.0000    0.0000    0.0000 H   0  0  0  0  0  0  0  0  0  0  0  0
    0.0000    0.0000    0.0000 H   0  0  0  0  0  0  0  0  0  0  0  0
    0.0000    0.0000    0.0000 H   0  0  0  0  0  0  0  0  0  0  0  0
    0.0000    0.0000    0.0000 H   0  0  0  0  0  0  0  0  0  0  0  0
    0.0000    0.0000    0.0000 H   0  0  0  0  0  0  0  0  0  0  0  0
    0.0000    0.0000    0.0000 H   0  0  0  0  0  0  0  0  0  0  0  0
    0.0000    0.0000    0.0000 H   0  0  0  0  0  0  0  0  0  0  0  0
    0.0000    0.0000    0.0000 H   0  0  0  0  0  0  0  0  0  0  0  0
    0.0000    0.0000    0.0000 H   0  0  0  0  0  0  0  0  0  0  0  0
    0.0000    0.0000    0.0000 H   0  0  0  0  0  0  0  0  0  0  0  0
    0.0000    0.0000    0.0000 H   0  0  0  0  0  0  0  0  0  0  0  0
    0.0000    0.0000    0.0000 H   0  0  0  0  0  0  0  0  0  0  0  0
    0.0000    0.0000    0.0000 H   0  0  0  0  0  0  0  0  0  0  0  0
    0.0000    0.0000    0.0000 H   0  0  0  0  0  0  0  0  0  0  0  0
    0.0000    0.0000    0.0000 H   0  0  0  0  0  0  0  0  0  0  0  0
    0.0000    0.0000    0.0000 H   0  0  0  0  0  0  0  0  0  0  0  0
    0.0000    0.0000    0.0000 H   0  0  0  0  0  0  0  0  0  0  0  0
    0.0000    0.0000    0.0000 H   0  0  0  0  0  0  0  0  0  0  0  0
  5  1  1  0
  6  5  1  0
  7  6  1  0
  8  7  1  0
 10  9  1  0
 14 11  1  0
 15 12  1  0
 16 13  1  0
 18  2  1  0
 19  9  1  0
 19 17  2  0
 20 11  1  0
 20 17  1  0
 21 10  1  0
 22 12  1  0
 22 21  1  0
 23 13  1  0
 23 21  1  0
 24  8  1  0
 25  3  1  1
 25 14  1  0
 25 19  1  0
 25 22  1  0
 26  4  1  1
 26 15  1  0
 26 23  1  0
 27 16  1  0
 27 18  1  1
 27 26  1  0
 28 18  2  0
 29 20  2  0
 30 24  2  0
 31 24  1  0
 27 31  1  0
  1 32  1  0
  1 33  1  0
  1 34  1  0
  2 35  1  0
  2 36  1  0
  2 37  1  0
  3 38  1  0
  3 39  1  0
  3 40  1  0
  4 41  1  0
  4 42  1  0
  4 43  1  0
  5 44  1  0
  5 45  1  0
  6 46  1  0
  6 47  1  0
  7 48  1  0
  7 49  1  0
  8 50  1  0
  8 51  1  0
  9 52  1  0
  9 53  1  0
 10 54  1  0
 10 55  1  0
 11 56  1  0
 11 57  1  0
 12 58  1  0
 12 59  1  0
 13 60  1  0
 13 61  1  0
 14 62  1  0
 14 63  1  0
 15 64  1  0
 15 65  1  0
 16 66  1  0
 16 67  1  0
 17 68  1  0
 21 69  1  1
 22 70  1  6
 23 71  1  6
M  END
>  <ALOGPS_LOGP>  (1) 
4.81

>  <ALOGPS_LOGS>  (1) 
-5.69

>  <ALOGPS_SOLUBILITY>  (1) 
8.66e-04 g/l

>  <DATABASE_ID>  (1) 
DB06789

>  <DATABASE_NAME>  (1) 
drugbank

>  <DRUGBANK_ID>  (1) 
DB06789

>  <DRUG_GROUPS>  (1) 
approved

>  <EXACT_MASS>  (1) 
428.292659768

>  <FORMULA>  (1) 
C27H40O4

>  <GENERIC_NAME>  (1) 
Hydroxyprogesterone caproate

>  <INCHI_IDENTIFIER>  (1) 
InChI=1S/C27H40O4/c1-5-6-7-8-24(30)31-27(18(2)28)16-13-23-21-10-9-19-17-20(29)11-14-25(19,3)22(21)12-15-26(23,27)4/h17,21-23H,5-16H2,1-4H3/t21-,22+,23+,25+,26+,27+/m1/s1

>  <INCHI_KEY>  (1) 
DOMWKUIIPQCAJU-LJHIYBGHSA-N

>  <INTERNATIONAL_BRANDS>  (1) 
Delalutin; Gestiva; Hormofort; ldrogestene; Makena

>  <JCHEM_ACCEPTOR_COUNT>  (1) 
3

>  <JCHEM_ATOM_COUNT>  (1) 
71

>  <JCHEM_AVERAGE_POLARIZABILITY>  (1) 
50.08782998053948

>  <JCHEM_BIOAVAILABILITY>  (1) 
1

>  <JCHEM_DONOR_COUNT>  (1) 
0

>  <JCHEM_FORMAL_CHARGE>  (1) 
0

>  <JCHEM_GHOSE_FILTER>  (1) 
0

>  <JCHEM_IUPAC>  (1) 
(1S,2R,10R,11S,14R,15S)-14-acetyl-2,15-dimethyl-5-oxotetracyclo[8.7.0.0²,⁷.0¹¹,¹⁵]heptadec-6-en-14-yl hexanoate

>  <JCHEM_LOGP>  (1) 
5.876546530000002

>  <JCHEM_MDDR_LIKE_RULE>  (1) 
1

>  <JCHEM_NUMBER_OF_RINGS>  (1) 
4

>  <JCHEM_PHYSIOLOGICAL_CHARGE>  (1) 
0

>  <JCHEM_PKA>  (1) 
19.109766884828296

>  <JCHEM_PKA_STRONGEST_ACIDIC>  (1) 
17.807032148810006

>  <JCHEM_PKA_STRONGEST_BASIC>  (1) 
-4.814718723811239

>  <JCHEM_POLAR_SURFACE_AREA>  (1) 
60.44

>  <JCHEM_REFRACTIVITY>  (1) 
121.68669999999993

>  <JCHEM_ROTATABLE_BOND_COUNT>  (1) 
7

>  <JCHEM_RULE_OF_FIVE>  (1) 
0

>  <JCHEM_TRADITIONAL_IUPAC>  (1) 
proge

>  <JCHEM_VEBER_RULE>  (1) 
0

>  <MOLECULAR_WEIGHT>  (1) 
428.6041

>  <PRODUCTS>  (1) 
Hydroxyprogesterone Caproate; Makena

>  <SALTS>  (1) 
hydroxyprogesterone caproate

>  <SMILES>  (1) 
[H][C@@]12CC[C@](OC(=O)CCCCC)(C(C)=O)[C@@]1(C)CC[C@@]1([H])[C@@]2([H])CCC2=CC(=O)CC[C@]12C

>  <SYNONYMS>  (1) 
17alpha-Caproyloxypregn-4-ene-3,20-dione; Delalutin; Hydroxyprogesterone; Oxiprogesterone Caproate; Primolut depot

$$$$
