
     RDKit          2D

 72 75  0  0  1  0  0  0  0  0999 V2000
    5.8137   -0.8250    0.0000 S   0  0  0  0  0  0  0  0  0  0  0  0
    5.4012   -0.1106    0.0000 O   0  0  0  0  0  0  0  0  0  0  0  0
    6.2262   -1.5395    0.0000 O   0  0  0  0  0  0  0  0  0  0  0  0
    8.6717    0.8250    0.0000 O   0  0  0  0  0  0  0  0  0  0  0  0
    9.3861   -2.8876    0.0000 O   0  0  0  0  0  0  0  0  0  0  0  0
    2.2021   -1.1606    0.0000 N   0  0  0  0  0  0  0  0  0  0  0  0
    5.0993   -1.2375    0.0000 N   0  0  0  0  0  0  0  0  0  0  0  0
    9.3861   -0.4125    0.0000 N   0  0  0  0  0  0  0  0  0  0  0  0
   10.8812   -1.9014    0.0000 N   0  0  0  0  0  0  0  0  0  0  0  0
   11.3628   -1.2375    0.0000 N   0  0  0  0  0  0  0  0  0  0  0  0
    8.6717   -1.6500    0.0000 N   0  0  0  0  0  0  0  0  0  0  0  0
    2.9558   -0.8250    0.0000 C   0  0  0  0  0  0  0  0  0  0  0  0
    2.8696   -0.0045    0.0000 C   0  0  0  0  0  0  0  0  0  0  0  0
    2.0625    0.1670    0.0000 C   0  0  0  0  0  0  0  0  0  0  0  0
    1.6500   -0.5475    0.0000 C   0  0  0  0  0  0  0  0  0  0  0  0
    3.6703   -1.2375    0.0000 C   0  0  0  0  0  0  0  0  0  0  0  0
    4.3847   -0.8250    0.0000 C   0  0  0  0  0  0  0  0  0  0  0  0
    2.0305   -1.9676    0.0000 C   0  0  0  0  0  0  0  0  0  0  0  0
    6.5282   -0.4125    0.0000 C   0  0  0  0  0  0  0  0  0  0  0  0
    7.2427   -0.8250    0.0000 C   0  0  0  0  0  0  0  0  0  0  0  0
    7.9572   -0.4125    0.0000 C   0  0  0  0  0  0  0  0  0  0  0  0
    6.5282    0.4125    0.0000 C   0  0  0  0  0  0  0  0  0  0  0  0
   10.1006   -0.8250    0.0000 C   0  0  0  0  0  0  0  0  0  0  0  0
    8.6717   -0.8250    0.0000 C   0  0  0  0  0  0  0  0  0  0  0  0
    7.9572    0.4125    0.0000 C   0  0  0  0  0  0  0  0  0  0  0  0
   10.8812   -0.5736    0.0000 C   0  0  0  0  0  0  0  0  0  0  0  0
   10.1006   -1.6500    0.0000 C   0  0  0  0  0  0  0  0  0  0  0  0
    7.2427    0.8250    0.0000 C   0  0  0  0  0  0  0  0  0  0  0  0
   11.1376    0.2106    0.0000 C   0  0  0  0  0  0  0  0  0  0  0  0
    9.3861   -2.0625    0.0000 C   0  0  0  0  0  0  0  0  0  0  0  0
   11.9449    0.3807    0.0000 C   0  0  0  0  0  0  0  0  0  0  0  0
   11.1376   -2.6857    0.0000 C   0  0  0  0  0  0  0  0  0  0  0  0
    8.6717    1.6500    0.0000 C   0  0  0  0  0  0  0  0  0  0  0  0
   12.2012    1.1649    0.0000 C   0  0  0  0  0  0  0  0  0  0  0  0
    9.3861    2.0625    0.0000 C   0  0  0  0  0  0  0  0  0  0  0  0
    9.3861    2.8876    0.0000 C   0  0  0  0  0  0  0  0  0  0  0  0
    0.0000    0.0000    0.0000 H   0  0  0  0  0  0  0  0  0  0  0  0
    0.0000    0.0000    0.0000 H   0  0  0  0  0  0  0  0  0  0  0  0
    0.0000    0.0000    0.0000 H   0  0  0  0  0  0  0  0  0  0  0  0
    0.0000    0.0000    0.0000 H   0  0  0  0  0  0  0  0  0  0  0  0
    0.0000    0.0000    0.0000 H   0  0  0  0  0  0  0  0  0  0  0  0
    0.0000    0.0000    0.0000 H   0  0  0  0  0  0  0  0  0  0  0  0
    0.0000    0.0000    0.0000 H   0  0  0  0  0  0  0  0  0  0  0  0
    0.0000    0.0000    0.0000 H   0  0  0  0  0  0  0  0  0  0  0  0
    0.0000    0.0000    0.0000 H   0  0  0  0  0  0  0  0  0  0  0  0
    0.0000    0.0000    0.0000 H   0  0  0  0  0  0  0  0  0  0  0  0
    0.0000    0.0000    0.0000 H   0  0  0  0  0  0  0  0  0  0  0  0
    0.0000    0.0000    0.0000 H   0  0  0  0  0  0  0  0  0  0  0  0
    0.0000    0.0000    0.0000 H   0  0  0  0  0  0  0  0  0  0  0  0
    0.0000    0.0000    0.0000 H   0  0  0  0  0  0  0  0  0  0  0  0
    0.0000    0.0000    0.0000 H   0  0  0  0  0  0  0  0  0  0  0  0
    0.0000    0.0000    0.0000 H   0  0  0  0  0  0  0  0  0  0  0  0
    0.0000    0.0000    0.0000 H   0  0  0  0  0  0  0  0  0  0  0  0
    0.0000    0.0000    0.0000 H   0  0  0  0  0  0  0  0  0  0  0  0
    0.0000    0.0000    0.0000 H   0  0  0  0  0  0  0  0  0  0  0  0
    0.0000    0.0000    0.0000 H   0  0  0  0  0  0  0  0  0  0  0  0
    0.0000    0.0000    0.0000 H   0  0  0  0  0  0  0  0  0  0  0  0
    0.0000    0.0000    0.0000 H   0  0  0  0  0  0  0  0  0  0  0  0
    0.0000    0.0000    0.0000 H   0  0  0  0  0  0  0  0  0  0  0  0
    0.0000    0.0000    0.0000 H   0  0  0  0  0  0  0  0  0  0  0  0
    0.0000    0.0000    0.0000 H   0  0  0  0  0  0  0  0  0  0  0  0
    0.0000    0.0000    0.0000 H   0  0  0  0  0  0  0  0  0  0  0  0
    0.0000    0.0000    0.0000 H   0  0  0  0  0  0  0  0  0  0  0  0
    0.0000    0.0000    0.0000 H   0  0  0  0  0  0  0  0  0  0  0  0
    0.0000    0.0000    0.0000 H   0  0  0  0  0  0  0  0  0  0  0  0
    0.0000    0.0000    0.0000 H   0  0  0  0  0  0  0  0  0  0  0  0
    0.0000    0.0000    0.0000 H   0  0  0  0  0  0  0  0  0  0  0  0
    0.0000    0.0000    0.0000 H   0  0  0  0  0  0  0  0  0  0  0  0
    0.0000    0.0000    0.0000 H   0  0  0  0  0  0  0  0  0  0  0  0
    0.0000    0.0000    0.0000 H   0  0  0  0  0  0  0  0  0  0  0  0
    0.0000    0.0000    0.0000 H   0  0  0  0  0  0  0  0  0  0  0  0
    0.0000    0.0000    0.0000 H   0  0  0  0  0  0  0  0  0  0  0  0
  1  2  2  0
  1  3  2  0
  1  7  1  0
  1 19  1  0
  4 25  1  0
  4 33  1  0
  5 30  2  0
  6 12  1  0
  6 15  1  0
  6 18  1  0
  7 17  1  0
  8 23  1  0
  8 24  1  0
  9 10  1  0
  9 27  1  0
  9 32  1  0
 10 26  2  0
 11 24  2  0
 11 30  1  0
 12 13  1  0
 12 16  1  0
 13 14  1  0
 14 15  1  0
 16 17  1  0
 19 20  2  0
 19 22  1  0
 20 21  1  0
 21 24  1  0
 21 25  2  0
 22 28  2  0
 23 26  1  0
 23 27  2  0
 25 28  1  0
 26 29  1  0
 27 30  1  0
 29 31  1  0
 31 34  1  0
 33 35  1  0
 35 36  1  0
  7 37  1  0
  8 38  1  0
 12 39  1  0
 13 40  1  0
 13 41  1  0
 14 42  1  0
 14 43  1  0
 15 44  1  0
 15 45  1  0
 16 46  1  0
 16 47  1  0
 17 48  1  0
 17 49  1  0
 18 50  1  0
 18 51  1  0
 18 52  1  0
 20 53  1  0
 22 54  1  0
 28 55  1  0
 29 56  1  0
 29 57  1  0
 31 58  1  0
 31 59  1  0
 32 60  1  0
 32 61  1  0
 32 62  1  0
 33 63  1  0
 33 64  1  0
 34 65  1  0
 34 66  1  0
 34 67  1  0
 35 68  1  0
 35 69  1  0
 36 70  1  0
 36 71  1  0
 36 72  1  0
M  END
>  <ALOGPS_LOGP>  (1) 
3.20

>  <ALOGPS_LOGS>  (1) 
-3.81

>  <ALOGPS_SOLUBILITY>  (1) 
7.98e-02 g/l

>  <DATABASE_ID>  (1) 
DB06267

>  <DATABASE_NAME>  (1) 
drugbank

>  <DRUGBANK_ID>  (1) 
DB06267

>  <DRUG_GROUPS>  (1) 
approved; investigational

>  <EXACT_MASS>  (1) 
516.25187436

>  <FORMULA>  (1) 
C25H36N6O4S

>  <GENERIC_NAME>  (1) 
Udenafil

>  <INCHI_IDENTIFIER>  (1) 
InChI=1S/C25H36N6O4S/c1-5-8-20-22-23(31(4)29-20)25(32)28-24(27-22)19-16-18(10-11-21(19)35-15-6-2)36(33,34)26-13-12-17-9-7-14-30(17)3/h10-11,16-17,26H,5-9,12-15H2,1-4H3,(H,27,28,32)

>  <INCHI_KEY>  (1) 
IYFNEFQTYQPVOC-UHFFFAOYSA-N

>  <INTERNATIONAL_BRANDS>  (1) 
Zydena

>  <JCHEM_ACCEPTOR_COUNT>  (1) 
8

>  <JCHEM_AVERAGE_POLARIZABILITY>  (1) 
56.34124295742618

>  <JCHEM_BIOAVAILABILITY>  (1) 
1

>  <JCHEM_DONOR_COUNT>  (1) 
2

>  <JCHEM_FORMAL_CHARGE>  (1) 
0

>  <JCHEM_GHOSE_FILTER>  (1) 
0

>  <JCHEM_IUPAC>  (1) 
3-{1-methyl-7-oxo-3-propyl-1H,4H,7H-pyrazolo[4,3-d]pyrimidin-5-yl}-N-[2-(1-methylpyrrolidin-2-yl)ethyl]-4-propoxybenzene-1-sulfonamide

>  <JCHEM_LOGP>  (1) 
1.6629407692809368

>  <JCHEM_MDDR_LIKE_RULE>  (1) 
1

>  <JCHEM_NUMBER_OF_RINGS>  (1) 
4

>  <JCHEM_PHYSIOLOGICAL_CHARGE>  (1) 
1

>  <JCHEM_PKA>  (1) 
10.534232164162704

>  <JCHEM_PKA_STRONGEST_ACIDIC>  (1) 
7.211661117101456

>  <JCHEM_PKA_STRONGEST_BASIC>  (1) 
8.475337403358353

>  <JCHEM_POLAR_SURFACE_AREA>  (1) 
117.92000000000002

>  <JCHEM_REFRACTIVITY>  (1) 
153.1134

>  <JCHEM_ROTATABLE_BOND_COUNT>  (1) 
10

>  <JCHEM_RULE_OF_FIVE>  (1) 
0

>  <JCHEM_TRADITIONAL_IUPAC>  (1) 
udenafil

>  <JCHEM_VEBER_RULE>  (1) 
0

>  <MOLECULAR_WEIGHT>  (1) 
516.656

>  <SMILES>  (1) 
CCCOC1=C(C=C(C=C1)S(=O)(=O)NCCC1CCCN1C)C1=NC(=O)C2=C(N1)C(CCC)=NN2C

$$$$
