
     RDKit          2D

 51 51  0  0  1  0  0  0  0  0999 V2000
   -2.4555   -1.3177    0.0000 C   0  0  0  0  0  0  0  0  0  0  0  0
   -2.3062    0.1035    0.0000 C   0  0  0  0  0  0  0  0  0  0  0  0
   -0.1435   -2.9975    0.0000 C   0  0  0  0  0  0  0  0  0  0  0  0
   -1.6351   -1.4039    0.0000 C   0  0  0  0  0  0  0  0  0  0  0  0
   -1.4857    0.0172    0.0000 C   0  0  0  0  0  0  0  0  0  0  0  0
    1.2352    0.6294    0.0000 C   0  0  0  0  0  0  0  0  0  0  0  0
   -0.4790   -2.2438    0.0000 C   0  0  0  0  0  0  0  0  0  0  0  0
   -1.1501   -0.7365    0.0000 C   0  0  0  0  0  0  0  0  0  0  0  0
    0.5678    1.1143    0.0000 C   0  0  0  0  0  0  0  0  0  0  0  0
    0.9803   -0.1553    0.0000 C   0  0  0  0  0  0  0  0  0  0  0  0
    0.1553   -0.1553    0.0000 C   0  0  0  0  0  0  0  0  0  0  0  0
   -0.3297   -0.8227    0.0000 C   0  0  0  0  0  0  0  0  0  0  0  0
   -0.0997    0.6294    0.0000 C   0  0  0  0  0  0  0  0  0  0  0  0
    0.5678    1.9393    0.0000 C   0  0  0  0  0  0  0  0  0  0  0  0
    2.2857   -0.7365    0.0000 C   0  0  0  0  0  0  0  0  0  0  0  0
    2.6212    0.0172    0.0000 N   0  0  0  0  0  0  0  0  0  0  0  0
    2.7706   -1.4039    0.0000 N   0  0  0  0  0  0  0  0  0  0  0  0
    0.0059   -1.5764    0.0000 N   0  0  0  0  0  0  0  0  0  0  0  0
    1.4652   -0.8227    0.0000 N   0  0  0  0  0  0  0  0  0  0  0  0
   -1.2995   -2.1576    0.0000 O   0  0  0  0  0  0  0  0  0  0  0  0
   -0.8843    0.8843    0.0000 O   0  0  0  0  0  0  0  0  0  0  0  0
   -0.1467    2.3518    0.0000 O   0  0  0  0  0  0  0  0  0  0  0  0
    1.2822    2.3518    0.0000 O   0  0  0  0  0  0  0  0  0  0  0  0
    0.0000    0.0000    0.0000 H   0  0  0  0  0  0  0  0  0  0  0  0
    0.0000    0.0000    0.0000 H   0  0  0  0  0  0  0  0  0  0  0  0
    0.0000    0.0000    0.0000 H   0  0  0  0  0  0  0  0  0  0  0  0
    0.0000    0.0000    0.0000 H   0  0  0  0  0  0  0  0  0  0  0  0
    0.0000    0.0000    0.0000 H   0  0  0  0  0  0  0  0  0  0  0  0
    0.0000    0.0000    0.0000 H   0  0  0  0  0  0  0  0  0  0  0  0
    0.0000    0.0000    0.0000 H   0  0  0  0  0  0  0  0  0  0  0  0
    0.0000    0.0000    0.0000 H   0  0  0  0  0  0  0  0  0  0  0  0
    0.0000    0.0000    0.0000 H   0  0  0  0  0  0  0  0  0  0  0  0
    0.0000    0.0000    0.0000 H   0  0  0  0  0  0  0  0  0  0  0  0
    0.0000    0.0000    0.0000 H   0  0  0  0  0  0  0  0  0  0  0  0
    0.0000    0.0000    0.0000 H   0  0  0  0  0  0  0  0  0  0  0  0
    0.0000    0.0000    0.0000 H   0  0  0  0  0  0  0  0  0  0  0  0
    0.0000    0.0000    0.0000 H   0  0  0  0  0  0  0  0  0  0  0  0
    0.0000    0.0000    0.0000 H   0  0  0  0  0  0  0  0  0  0  0  0
    0.0000    0.0000    0.0000 H   0  0  0  0  0  0  0  0  0  0  0  0
    0.0000    0.0000    0.0000 H   0  0  0  0  0  0  0  0  0  0  0  0
    0.0000    0.0000    0.0000 H   0  0  0  0  0  0  0  0  0  0  0  0
    0.0000    0.0000    0.0000 H   0  0  0  0  0  0  0  0  0  0  0  0
    0.0000    0.0000    0.0000 H   0  0  0  0  0  0  0  0  0  0  0  0
    0.0000    0.0000    0.0000 H   0  0  0  0  0  0  0  0  0  0  0  0
    0.0000    0.0000    0.0000 H   0  0  0  0  0  0  0  0  0  0  0  0
    0.0000    0.0000    0.0000 H   0  0  0  0  0  0  0  0  0  0  0  0
    0.0000    0.0000    0.0000 H   0  0  0  0  0  0  0  0  0  0  0  0
    0.0000    0.0000    0.0000 H   0  0  0  0  0  0  0  0  0  0  0  0
    0.0000    0.0000    0.0000 H   0  0  0  0  0  0  0  0  0  0  0  0
    0.0000    0.0000    0.0000 H   0  0  0  0  0  0  0  0  0  0  0  0
    0.0000    0.0000    0.0000 H   0  0  0  0  0  0  0  0  0  0  0  0
  4  1  1  0
  5  2  1  0
  7  3  1  0
  8  4  1  0
  8  5  1  0
  9  6  1  0
 10  6  1  0
 11 10  1  0
 12  8  1  1
 11 12  1  0
 13  9  1  0
 13 11  1  0
  9 14  1  6
 16 15  2  3
 17 15  1  0
 18  7  2  3
 12 18  1  0
 10 19  1  6
 19 15  1  0
 20  7  1  0
 13 21  1  6
 22 14  2  0
 23 14  1  0
  1 24  1  0
  1 25  1  0
  1 26  1  0
  2 27  1  0
  2 28  1  0
  2 29  1  0
  3 30  1  0
  3 31  1  0
  3 32  1  0
  4 33  1  0
  4 34  1  0
  5 35  1  0
  5 36  1  0
  6 37  1  0
  6 38  1  0
  8 39  1  0
  9 40  1  0
 10 41  1  0
 11 42  1  1
 12 43  1  0
 13 44  1  0
 16 45  1  0
 17 46  1  0
 17 47  1  0
 19 48  1  0
 20 49  1  0
 21 50  1  0
 23 51  1  0
M  END
>  <ALOGPS_LOGP>  (1) 
-0.14

>  <ALOGPS_LOGS>  (1) 
-3.28

>  <ALOGPS_SOLUBILITY>  (1) 
1.71e-01 g/l

>  <DATABASE_ID>  (1) 
DB06614

>  <DATABASE_NAME>  (1) 
drugbank

>  <DRUGBANK_ID>  (1) 
DB06614

>  <DRUG_GROUPS>  (1) 
approved; investigational

>  <EXACT_MASS>  (1) 
328.211055404

>  <FORMULA>  (1) 
C15H28N4O4

>  <GENERIC_NAME>  (1) 
Peramivir

>  <INCHI_IDENTIFIER>  (1) 
InChI=1S/C15H28N4O4/c1-4-8(5-2)12(18-7(3)20)11-10(19-15(16)17)6-9(13(11)21)14(22)23/h8-13,21H,4-6H2,1-3H3,(H,18,20)(H,22,23)(H4,16,17,19)/t9-,10+,11+,12-,13+/m0/s1

>  <INCHI_KEY>  (1) 
XRQDFNLINLXZLB-CKIKVBCHSA-N

>  <JCHEM_ACCEPTOR_COUNT>  (1) 
8

>  <JCHEM_AVERAGE_POLARIZABILITY>  (1) 
34.938078822981154

>  <JCHEM_BIOAVAILABILITY>  (1) 
1

>  <JCHEM_DONOR_COUNT>  (1) 
6

>  <JCHEM_FORMAL_CHARGE>  (1) 
0

>  <JCHEM_GHOSE_FILTER>  (1) 
0

>  <JCHEM_IUPAC>  (1) 
(1S,2S,3R,4R)-4-carbamimidamido-3-[(1S)-2-ethyl-1-[(1-hydroxyethylidene)amino]butyl]-2-hydroxycyclopentane-1-carboxylic acid

>  <JCHEM_LOGP>  (1) 
-1.323186090688844

>  <JCHEM_MDDR_LIKE_RULE>  (1) 
0

>  <JCHEM_NUMBER_OF_RINGS>  (1) 
1

>  <JCHEM_PHYSIOLOGICAL_CHARGE>  (1) 
1

>  <JCHEM_PKA>  (1) 
7.855187680492167

>  <JCHEM_PKA_STRONGEST_ACIDIC>  (1) 
3.9887710817368074

>  <JCHEM_PKA_STRONGEST_BASIC>  (1) 
12.476982877402342

>  <JCHEM_POLAR_SURFACE_AREA>  (1) 
152.02

>  <JCHEM_REFRACTIVITY>  (1) 
94.98209999999999

>  <JCHEM_ROTATABLE_BOND_COUNT>  (1) 
7

>  <JCHEM_RULE_OF_FIVE>  (1) 
0

>  <JCHEM_TRADITIONAL_IUPAC>  (1) 
(1S,2S,3R,4R)-4-carbamimidamido-3-[(1S)-2-ethyl-1-[(1-hydroxyethylidene)amino]butyl]-2-hydroxycyclopentane-1-carboxylic acid

>  <JCHEM_VEBER_RULE>  (1) 
0

>  <MOLECULAR_WEIGHT>  (1) 
328.4072

>  <PRODUCTS>  (1) 
Rapivab

>  <SALTS>  (1) 
Peramivir hydrate

>  <SECONDARY_ACCESSION_NUMBERS>  (1) 
EXPT00645; DB03655

>  <SMILES>  (1) 
[H][C@](N=C(C)O)(C(CC)CC)[C@]1([H])[C@]([H])(O)[C@]([H])(C[C@@]1([H])NC(N)=N)C(O)=O

$$$$
