11243969
     RDKit          2D

 48 52  0  0  1  0  0  0  0  0999 V2000
    3.0303    2.1407    0.0000 O   0  0  0  0  0  0  0  0  0  0  0  0
    5.3140    0.5478    0.0000 O   0  0  0  0  0  0  0  0  0  0  0  0
    5.6838   -0.8325    0.0000 N   0  0  0  0  0  0  0  0  0  0  0  0
    4.0900   -1.2595    0.0000 N   0  0  0  0  0  0  0  0  0  0  0  0
    4.0846   -2.3965    0.0000 N   0  0  0  0  0  0  0  0  0  0  0  0
    3.7202    0.1208    0.0000 C   0  0  0  0  0  0  0  0  0  0  0  0
    3.0303    1.3157    0.0000 C   0  0  0  0  0  0  0  0  0  0  0  0
    2.4602   -0.2382    0.0000 C   0  0  0  0  0  0  0  0  0  0  0  0
    2.3404    0.1208    0.0000 C   0  0  0  0  0  0  0  0  0  0  0  0
    3.7202    0.9173    0.0000 C   0  0  0  0  0  0  0  0  0  0  0  0
    3.0303   -0.1291    0.0000 C   0  0  0  0  0  0  0  0  0  0  0  0
    3.2073   -0.6315    0.0000 C   0  0  0  0  0  0  0  0  0  0  0  0
    2.3404    0.9173    0.0000 C   0  0  0  0  0  0  0  0  0  0  0  0
    2.4602    0.6243    0.0000 C   0  0  0  0  0  0  0  0  0  0  0  0
    1.6500   -0.2775    0.0000 C   0  0  0  0  0  0  0  0  0  0  0  0
    4.3036   -0.4625    0.0000 C   0  0  0  0  0  0  0  0  0  0  0  0
    6.4987   -0.7033    0.0000 C   0  0  0  0  0  0  0  0  0  0  0  0
    6.8732   -1.4385    0.0000 C   0  0  0  0  0  0  0  0  0  0  0  0
    7.3230   -0.7464    0.0000 C   0  0  0  0  0  0  0  0  0  0  0  0
    6.2899   -2.0219    0.0000 C   0  0  0  0  0  0  0  0  0  0  0  0
    5.1004   -0.2491    0.0000 C   0  0  0  0  0  0  0  0  0  0  0  0
    5.5548   -1.6474    0.0000 C   0  0  0  0  0  0  0  0  0  0  0  0
    4.8197   -2.0219    0.0000 C   0  0  0  0  0  0  0  0  0  0  0  0
    0.0000    0.0000    0.0000 H   0  0  0  0  0  0  0  0  0  0  0  0
    0.0000    0.0000    0.0000 H   0  0  0  0  0  0  0  0  0  0  0  0
    0.0000    0.0000    0.0000 H   0  0  0  0  0  0  0  0  0  0  0  0
    0.0000    0.0000    0.0000 H   0  0  0  0  0  0  0  0  0  0  0  0
    0.0000    0.0000    0.0000 H   0  0  0  0  0  0  0  0  0  0  0  0
    0.0000    0.0000    0.0000 H   0  0  0  0  0  0  0  0  0  0  0  0
    0.0000    0.0000    0.0000 H   0  0  0  0  0  0  0  0  0  0  0  0
    0.0000    0.0000    0.0000 H   0  0  0  0  0  0  0  0  0  0  0  0
    0.0000    0.0000    0.0000 H   0  0  0  0  0  0  0  0  0  0  0  0
    0.0000    0.0000    0.0000 H   0  0  0  0  0  0  0  0  0  0  0  0
    0.0000    0.0000    0.0000 H   0  0  0  0  0  0  0  0  0  0  0  0
    0.0000    0.0000    0.0000 H   0  0  0  0  0  0  0  0  0  0  0  0
    0.0000    0.0000    0.0000 H   0  0  0  0  0  0  0  0  0  0  0  0
    0.0000    0.0000    0.0000 H   0  0  0  0  0  0  0  0  0  0  0  0
    0.0000    0.0000    0.0000 H   0  0  0  0  0  0  0  0  0  0  0  0
    0.0000    0.0000    0.0000 H   0  0  0  0  0  0  0  0  0  0  0  0
    0.0000    0.0000    0.0000 H   0  0  0  0  0  0  0  0  0  0  0  0
    0.0000    0.0000    0.0000 H   0  0  0  0  0  0  0  0  0  0  0  0
    0.0000    0.0000    0.0000 H   0  0  0  0  0  0  0  0  0  0  0  0
    0.0000    0.0000    0.0000 H   0  0  0  0  0  0  0  0  0  0  0  0
    0.0000    0.0000    0.0000 H   0  0  0  0  0  0  0  0  0  0  0  0
    0.0000    0.0000    0.0000 H   0  0  0  0  0  0  0  0  0  0  0  0
    0.0000    0.0000    0.0000 H   0  0  0  0  0  0  0  0  0  0  0  0
    0.0000    0.0000    0.0000 H   0  0  0  0  0  0  0  0  0  0  0  0
    0.0000    0.0000    0.0000 H   0  0  0  0  0  0  0  0  0  0  0  0
  1  7  1  0
  2 21  2  0
 17  3  1  0
  3 21  1  0
  3 22  1  0
 16  4  1  1
  5 23  3  0
  6 10  1  0
  6 11  1  0
  6 12  1  0
  6 16  1  0
  7 10  1  0
  7 13  1  0
  7 14  1  0
  8 12  1  0
  8 14  1  0
  8 15  1  0
  9 11  1  0
  9 13  1  0
  9 15  1  0
 16 21  1  0
 17 18  1  0
 17 19  1  0
 18 19  1  0
 18 20  1  0
 20 22  1  0
 22 23  1  1
  1 24  1  0
  4 25  1  0
  4 26  1  0
  8 27  1  0
  9 28  1  0
 10 29  1  0
 10 30  1  0
 11 31  1  0
 11 32  1  0
 12 33  1  0
 12 34  1  0
 13 35  1  0
 13 36  1  0
 14 37  1  0
 14 38  1  0
 15 39  1  0
 15 40  1  0
 16 41  1  0
 17 42  1  6
 18 43  1  6
 19 44  1  0
 19 45  1  0
 20 46  1  0
 20 47  1  0
 22 48  1  0
M  END
>  <ALOGPS_LOGP>  (1) 
0.88

>  <ALOGPS_LOGS>  (1) 
-2.14

>  <ALOGPS_SOLUBILITY>  (1) 
2.26e+00 g/l

>  <DATABASE_ID>  (1) 
DB06335

>  <DATABASE_NAME>  (1) 
drugbank

>  <DRUGBANK_ID>  (1) 
DB06335

>  <DRUG_GROUPS>  (1) 
approved

>  <EXACT_MASS>  (1) 
315.194677059

>  <FORMULA>  (1) 
C18H25N3O2

>  <GENERIC_NAME>  (1) 
Saxagliptin

>  <INCHI_IDENTIFIER>  (1) 
InChI=1S/C18H25N3O2/c19-8-13-2-12-3-14(12)21(13)16(22)15(20)17-4-10-1-11(5-17)7-18(23,6-10)9-17/h10-15,23H,1-7,9,20H2/t10?,11?,12-,13+,14+,15-,17?,18?/m1/s1

>  <INCHI_KEY>  (1) 
QGJUIPDUBHWZPV-SGTAVMJGSA-N

>  <JCHEM_ACCEPTOR_COUNT>  (1) 
4

>  <JCHEM_AVERAGE_POLARIZABILITY>  (1) 
34.21637212755824

>  <JCHEM_BIOAVAILABILITY>  (1) 
1

>  <JCHEM_DONOR_COUNT>  (1) 
2

>  <JCHEM_FORMAL_CHARGE>  (1) 
0

>  <JCHEM_GHOSE_FILTER>  (1) 
1

>  <JCHEM_IUPAC>  (1) 
(1S,3S,5S)-2-[(2S)-2-amino-2-(3-hydroxyadamantan-1-yl)acetyl]-2-azabicyclo[3.1.0]hexane-3-carbonitrile

>  <JCHEM_LOGP>  (1) 
-0.07953443200000038

>  <JCHEM_MDDR_LIKE_RULE>  (1) 
0

>  <JCHEM_NUMBER_OF_RINGS>  (1) 
5

>  <JCHEM_PHYSIOLOGICAL_CHARGE>  (1) 
1

>  <JCHEM_PKA_STRONGEST_ACIDIC>  (1) 
14.743205216079474

>  <JCHEM_PKA_STRONGEST_BASIC>  (1) 
7.8981657875150555

>  <JCHEM_POLAR_SURFACE_AREA>  (1) 
90.35

>  <JCHEM_REFRACTIVITY>  (1) 
83.9913

>  <JCHEM_ROTATABLE_BOND_COUNT>  (1) 
2

>  <JCHEM_RULE_OF_FIVE>  (1) 
1

>  <JCHEM_TRADITIONAL_IUPAC>  (1) 
saxagliptin

>  <JCHEM_VEBER_RULE>  (1) 
0

>  <MOLECULAR_WEIGHT>  (1) 
315.41

>  <PRODUCTS>  (1) 
Kombiglyze XR; Komboglyze; Onglyza; Qtern

>  <SALTS>  (1) 
Saxagliptin hydrochloride; Saxagliptin monohydrate

>  <SMILES>  (1) 
N[C@H](C(=O)N1[C@H]2C[C@H]2C[C@H]1C#N)C12CC3CC(CC(O)(C3)C1)C2

>  <SYNONYMS>  (1) 
(1S,3S,5S)-2-((2S)-Amino(3-hydroxytricyclo(3.3.1.13,7)dec-1-yl)acetyl)-2-azabicyclo(3.1.0)hexane-3-carbonitrile; Saxagliptin anhydrous

$$$$
