
     RDKit          2D

 56 60  0  0  0  0  0  0  0  0999 V2000
   20.7380  -13.9364    0.0000 C   0  0  0  0  0  0  0  0  0  0  0  0
   20.2188  -14.5776    0.0000 N   0  0  0  0  0  0  0  0  0  0  0  0
   20.6681  -15.2694    0.0000 N   0  0  0  0  0  0  0  0  0  0  0  0
   21.4650  -15.0559    0.0000 C   0  0  0  0  0  0  0  0  0  0  0  0
   21.5082  -14.2321    0.0000 C   0  0  0  0  0  0  0  0  0  0  0  0
   22.2227  -13.8196    0.0000 C   0  0  0  0  0  0  0  0  0  0  0  0
   22.2227  -15.4696    0.0000 C   0  0  0  0  0  0  0  0  0  0  0  0
   22.9371  -15.0571    0.0000 C   0  0  0  0  0  0  0  0  0  0  0  0
   22.9371  -14.2321    0.0000 C   0  0  0  0  0  0  0  0  0  0  0  0
   23.6516  -13.8196    0.0000 C   0  0  0  0  0  0  0  0  0  0  0  0
   23.6516  -15.4696    0.0000 C   0  0  0  0  0  0  0  0  0  0  0  0
   24.3661  -15.0571    0.0000 C   0  0  0  0  0  0  0  0  0  0  0  0
   24.3661  -14.2321    0.0000 C   0  0  0  0  0  0  0  0  0  0  0  0
   24.3661  -12.5821    0.0000 C   0  0  0  0  0  0  0  0  0  0  0  0
   23.6516  -12.9946    0.0000 C   0  0  0  0  0  0  0  0  0  0  0  0
   25.0805  -13.8196    0.0000 C   0  0  0  0  0  0  0  0  0  0  0  0
   25.8076  -12.7001    0.0000 C   0  0  0  0  0  0  0  0  0  0  0  0
   25.0805  -12.9946    0.0000 C   0  0  0  0  0  0  0  0  0  0  0  0
   25.8774  -14.0331    0.0000 C   0  0  0  0  0  0  0  0  0  0  0  0
   26.3267  -13.3412    0.0000 C   0  0  0  0  0  0  0  0  0  0  0  0
   22.9371  -13.4071    0.0000 C   0  0  0  0  0  0  0  0  0  0  0  0
   25.0805  -12.1696    0.0000 C   0  0  0  0  0  0  0  0  0  0  0  0
   25.8076  -11.8751    0.0000 O   0  0  0  0  0  0  0  0  0  0  0  0
   26.5220  -12.2876    0.0000 C   0  0  0  0  0  0  0  0  0  0  0  0
    0.0000    0.0000    0.0000 H   0  0  0  0  0  0  0  0  0  0  0  0
    0.0000    0.0000    0.0000 H   0  0  0  0  0  0  0  0  0  0  0  0
    0.0000    0.0000    0.0000 H   0  0  0  0  0  0  0  0  0  0  0  0
    0.0000    0.0000    0.0000 H   0  0  0  0  0  0  0  0  0  0  0  0
    0.0000    0.0000    0.0000 H   0  0  0  0  0  0  0  0  0  0  0  0
    0.0000    0.0000    0.0000 H   0  0  0  0  0  0  0  0  0  0  0  0
    0.0000    0.0000    0.0000 H   0  0  0  0  0  0  0  0  0  0  0  0
    0.0000    0.0000    0.0000 H   0  0  0  0  0  0  0  0  0  0  0  0
    0.0000    0.0000    0.0000 H   0  0  0  0  0  0  0  0  0  0  0  0
    0.0000    0.0000    0.0000 H   0  0  0  0  0  0  0  0  0  0  0  0
    0.0000    0.0000    0.0000 H   0  0  0  0  0  0  0  0  0  0  0  0
    0.0000    0.0000    0.0000 H   0  0  0  0  0  0  0  0  0  0  0  0
    0.0000    0.0000    0.0000 H   0  0  0  0  0  0  0  0  0  0  0  0
    0.0000    0.0000    0.0000 H   0  0  0  0  0  0  0  0  0  0  0  0
    0.0000    0.0000    0.0000 H   0  0  0  0  0  0  0  0  0  0  0  0
    0.0000    0.0000    0.0000 H   0  0  0  0  0  0  0  0  0  0  0  0
    0.0000    0.0000    0.0000 H   0  0  0  0  0  0  0  0  0  0  0  0
    0.0000    0.0000    0.0000 H   0  0  0  0  0  0  0  0  0  0  0  0
    0.0000    0.0000    0.0000 H   0  0  0  0  0  0  0  0  0  0  0  0
    0.0000    0.0000    0.0000 H   0  0  0  0  0  0  0  0  0  0  0  0
    0.0000    0.0000    0.0000 H   0  0  0  0  0  0  0  0  0  0  0  0
    0.0000    0.0000    0.0000 H   0  0  0  0  0  0  0  0  0  0  0  0
    0.0000    0.0000    0.0000 H   0  0  0  0  0  0  0  0  0  0  0  0
    0.0000    0.0000    0.0000 H   0  0  0  0  0  0  0  0  0  0  0  0
    0.0000    0.0000    0.0000 H   0  0  0  0  0  0  0  0  0  0  0  0
    0.0000    0.0000    0.0000 H   0  0  0  0  0  0  0  0  0  0  0  0
    0.0000    0.0000    0.0000 H   0  0  0  0  0  0  0  0  0  0  0  0
    0.0000    0.0000    0.0000 H   0  0  0  0  0  0  0  0  0  0  0  0
    0.0000    0.0000    0.0000 H   0  0  0  0  0  0  0  0  0  0  0  0
    0.0000    0.0000    0.0000 H   0  0  0  0  0  0  0  0  0  0  0  0
    0.0000    0.0000    0.0000 H   0  0  0  0  0  0  0  0  0  0  0  0
    0.0000    0.0000    0.0000 H   0  0  0  0  0  0  0  0  0  0  0  0
  1  2  1  0
  2  3  1  0
  3  4  2  0
  1  5  2  0
  6  5  1  0
  5  4  1  0
  4  7  1  0
  7  8  1  0
  6  9  1  0
 10  9  1  0
  9  8  1  0
  8 11  1  0
 11 12  1  0
 12 13  1  0
 13 16  1  0
 10 13  1  0
 15 10  1  0
 14 15  1  0
 14 18  1  0
 16 19  1  0
 17 18  1  0
 19 20  1  0
 17 20  1  0
 18 16  1  0
  9 21  1  1
 18 22  1  1
 17 23  1  1
 17 24  1  0
  1 25  1  0
  2 26  1  0
  6 27  1  0
  6 28  1  0
  7 29  1  0
  7 30  1  0
  8 31  1  6
 10 32  1  6
 11 33  1  0
 11 34  1  0
 12 35  1  0
 12 36  1  0
 13 37  1  1
 14 38  1  0
 14 39  1  0
 15 40  1  0
 15 41  1  0
 16 42  1  6
 19 43  1  0
 19 44  1  0
 20 45  1  0
 20 46  1  0
 21 47  1  0
 21 48  1  0
 21 49  1  0
 22 50  1  0
 22 51  1  0
 22 52  1  0
 23 53  1  0
 24 54  1  0
 24 55  1  0
 24 56  1  0
M  END
>  <ALOGPS_LOGP>  (1) 
4.33

>  <ALOGPS_LOGS>  (1) 
-5.28

>  <ALOGPS_SOLUBILITY>  (1) 
1.73e-03 g/l

>  <DATABASE_ID>  (1) 
DB06718

>  <DATABASE_NAME>  (1) 
drugbank

>  <DRUGBANK_ID>  (1) 
DB06718

>  <DRUG_GROUPS>  (1) 
approved; vet_approved

>  <EXACT_MASS>  (1) 
328.251463656

>  <FORMULA>  (1) 
C21H32N2O

>  <GENERIC_NAME>  (1) 
Stanozolol

>  <INCHI_IDENTIFIER>  (1) 
InChI=1S/C21H32N2O/c1-19-11-13-12-22-23-18(13)10-14(19)4-5-15-16(19)6-8-20(2)17(15)7-9-21(20,3)24/h12,14-17,24H,4-11H2,1-3H3,(H,22,23)/t14-,15+,16-,17-,19-,20-,21-/m0/s1

>  <INCHI_KEY>  (1) 
LKAJKIOFIWVMDJ-IYRCEVNGSA-N

>  <INTERNATIONAL_BRANDS>  (1) 
Stromba; Winstrol; Winstrol Depot

>  <JCHEM_ACCEPTOR_COUNT>  (1) 
2

>  <JCHEM_AVERAGE_POLARIZABILITY>  (1) 
39.21936262648499

>  <JCHEM_BIOAVAILABILITY>  (1) 
1

>  <JCHEM_DONOR_COUNT>  (1) 
2

>  <JCHEM_FORMAL_CHARGE>  (1) 
0

>  <JCHEM_GHOSE_FILTER>  (1) 
1

>  <JCHEM_IUPAC>  (1) 
(1S,2S,10S,13R,14S,17S,18S)-2,17,18-trimethyl-6,7-diazapentacyclo[11.7.0.0²,¹⁰.0⁴,⁸.0¹⁴,¹⁸]icosa-4,7-dien-17-ol

>  <JCHEM_LOGP>  (1) 
3.8072400120000003

>  <JCHEM_MDDR_LIKE_RULE>  (1) 
0

>  <JCHEM_NUMBER_OF_RINGS>  (1) 
5

>  <JCHEM_PHYSIOLOGICAL_CHARGE>  (1) 
0

>  <JCHEM_PKA_STRONGEST_ACIDIC>  (1) 
16.23405245801253

>  <JCHEM_PKA_STRONGEST_BASIC>  (1) 
2.8573894711754946

>  <JCHEM_POLAR_SURFACE_AREA>  (1) 
48.91

>  <JCHEM_REFRACTIVITY>  (1) 
96.79769999999999

>  <JCHEM_ROTATABLE_BOND_COUNT>  (1) 
0

>  <JCHEM_RULE_OF_FIVE>  (1) 
1

>  <JCHEM_TRADITIONAL_IUPAC>  (1) 
stanozolol

>  <JCHEM_VEBER_RULE>  (1) 
0

>  <MOLECULAR_WEIGHT>  (1) 
328.4916

>  <SMILES>  (1) 
[H][C@@]12CC[C@](C)(O)[C@@]1(C)CC[C@@]1([H])[C@@]2([H])CC[C@@]2([H])CC3=NNC=C3C[C@]12C

>  <SYNONYMS>  (1) 
androstanazol; androstanazole

$$$$
