
     RDKit          2D

 59 63  0  0  0  0  0  0  0  0999 V2000
    6.6515    0.7169    0.0000 O   0  0  0  0  0  0  0  0  0  0  0  0
    3.7935    2.3669    0.0000 O   0  0  0  0  0  0  0  0  0  0  0  0
    7.8519   -2.9954    0.0000 O   0  0  0  0  0  0  0  0  0  0  0  0
    9.1718    2.8675    0.0000 O   0  0  0  0  0  0  0  0  0  0  0  0
    5.9370   -0.5207    0.0000 N   0  0  0  0  0  0  0  0  0  0  0  0
    3.0791    1.1294    0.0000 N   0  0  0  0  0  0  0  0  0  0  0  0
    8.1466   -0.2693    0.0000 N   0  0  0  0  0  0  0  0  0  0  0  0
    8.6280   -0.9332    0.0000 N   0  0  0  0  0  0  0  0  0  0  0  0
    9.2102   -2.5515    0.0000 N   0  0  0  0  0  0  0  0  0  0  0  0
    6.6515   -1.7582    0.0000 C   0  0  0  0  0  0  0  0  0  0  0  0
    5.9370   -1.3457    0.0000 C   0  0  0  0  0  0  0  0  0  0  0  0
    7.3659   -1.3457    0.0000 C   0  0  0  0  0  0  0  0  0  0  0  0
    7.3659   -0.5207    0.0000 C   0  0  0  0  0  0  0  0  0  0  0  0
    2.3645    0.7169    0.0000 C   0  0  0  0  0  0  0  0  0  0  0  0
    1.6500    1.1294    0.0000 C   0  0  0  0  0  0  0  0  0  0  0  0
    1.6500    1.9544    0.0000 C   0  0  0  0  0  0  0  0  0  0  0  0
    2.3645    2.3669    0.0000 C   0  0  0  0  0  0  0  0  0  0  0  0
    6.6515   -0.1082    0.0000 C   0  0  0  0  0  0  0  0  0  0  0  0
    5.2224   -0.1082    0.0000 C   0  0  0  0  0  0  0  0  0  0  0  0
    3.7935    0.7169    0.0000 C   0  0  0  0  0  0  0  0  0  0  0  0
    3.0791    1.9544    0.0000 C   0  0  0  0  0  0  0  0  0  0  0  0
    8.1466   -1.5972    0.0000 C   0  0  0  0  0  0  0  0  0  0  0  0
    5.2224    0.7169    0.0000 C   0  0  0  0  0  0  0  0  0  0  0  0
    4.5080   -0.5207    0.0000 C   0  0  0  0  0  0  0  0  0  0  0  0
    4.5080    1.1294    0.0000 C   0  0  0  0  0  0  0  0  0  0  0  0
    3.7935   -0.1082    0.0000 C   0  0  0  0  0  0  0  0  0  0  0  0
    8.4029    0.5149    0.0000 C   0  0  0  0  0  0  0  0  0  0  0  0
    8.4029   -2.3813    0.0000 C   0  0  0  0  0  0  0  0  0  0  0  0
    7.8519    1.1290    0.0000 C   0  0  0  0  0  0  0  0  0  0  0  0
    9.2102    0.6851    0.0000 C   0  0  0  0  0  0  0  0  0  0  0  0
    8.1082    1.9132    0.0000 C   0  0  0  0  0  0  0  0  0  0  0  0
    9.4665    1.4693    0.0000 C   0  0  0  0  0  0  0  0  0  0  0  0
    8.9155    2.0833    0.0000 C   0  0  0  0  0  0  0  0  0  0  0  0
    9.9791    3.0376    0.0000 C   0  0  0  0  0  0  0  0  0  0  0  0
    0.0000    0.0000    0.0000 H   0  0  0  0  0  0  0  0  0  0  0  0
    0.0000    0.0000    0.0000 H   0  0  0  0  0  0  0  0  0  0  0  0
    0.0000    0.0000    0.0000 H   0  0  0  0  0  0  0  0  0  0  0  0
    0.0000    0.0000    0.0000 H   0  0  0  0  0  0  0  0  0  0  0  0
    0.0000    0.0000    0.0000 H   0  0  0  0  0  0  0  0  0  0  0  0
    0.0000    0.0000    0.0000 H   0  0  0  0  0  0  0  0  0  0  0  0
    0.0000    0.0000    0.0000 H   0  0  0  0  0  0  0  0  0  0  0  0
    0.0000    0.0000    0.0000 H   0  0  0  0  0  0  0  0  0  0  0  0
    0.0000    0.0000    0.0000 H   0  0  0  0  0  0  0  0  0  0  0  0
    0.0000    0.0000    0.0000 H   0  0  0  0  0  0  0  0  0  0  0  0
    0.0000    0.0000    0.0000 H   0  0  0  0  0  0  0  0  0  0  0  0
    0.0000    0.0000    0.0000 H   0  0  0  0  0  0  0  0  0  0  0  0
    0.0000    0.0000    0.0000 H   0  0  0  0  0  0  0  0  0  0  0  0
    0.0000    0.0000    0.0000 H   0  0  0  0  0  0  0  0  0  0  0  0
    0.0000    0.0000    0.0000 H   0  0  0  0  0  0  0  0  0  0  0  0
    0.0000    0.0000    0.0000 H   0  0  0  0  0  0  0  0  0  0  0  0
    0.0000    0.0000    0.0000 H   0  0  0  0  0  0  0  0  0  0  0  0
    0.0000    0.0000    0.0000 H   0  0  0  0  0  0  0  0  0  0  0  0
    0.0000    0.0000    0.0000 H   0  0  0  0  0  0  0  0  0  0  0  0
    0.0000    0.0000    0.0000 H   0  0  0  0  0  0  0  0  0  0  0  0
    0.0000    0.0000    0.0000 H   0  0  0  0  0  0  0  0  0  0  0  0
    0.0000    0.0000    0.0000 H   0  0  0  0  0  0  0  0  0  0  0  0
    0.0000    0.0000    0.0000 H   0  0  0  0  0  0  0  0  0  0  0  0
    0.0000    0.0000    0.0000 H   0  0  0  0  0  0  0  0  0  0  0  0
    0.0000    0.0000    0.0000 H   0  0  0  0  0  0  0  0  0  0  0  0
  1 18  2  0
  2 21  2  0
  3 28  2  0
  4 33  1  0
  4 34  1  0
  5 11  1  0
  5 18  1  0
  5 19  1  0
  6 14  1  0
  6 20  1  0
  6 21  1  0
  7  8  1  0
  7 13  1  0
  7 27  1  0
  8 22  2  0
  9 28  1  0
 10 11  1  0
 10 12  1  0
 12 13  2  0
 12 22  1  0
 13 18  1  0
 14 15  1  0
 15 16  1  0
 16 17  1  0
 17 21  1  0
 19 23  2  0
 19 24  1  0
 20 25  2  0
 20 26  1  0
 22 28  1  0
 23 25  1  0
 24 26  2  0
 27 29  2  0
 27 30  1  0
 29 31  1  0
 30 32  2  0
 31 33  2  0
 32 33  1  0
  9 35  1  0
  9 36  1  0
 10 37  1  0
 10 38  1  0
 11 39  1  0
 11 40  1  0
 14 41  1  0
 14 42  1  0
 15 43  1  0
 15 44  1  0
 16 45  1  0
 16 46  1  0
 17 47  1  0
 17 48  1  0
 23 49  1  0
 24 50  1  0
 25 51  1  0
 26 52  1  0
 29 53  1  0
 30 54  1  0
 31 55  1  0
 32 56  1  0
 34 57  1  0
 34 58  1  0
 34 59  1  0
M  END
>  <ALOGPS_LOGP>  (1) 
2.22

>  <ALOGPS_LOGS>  (1) 
-3.83

>  <ALOGPS_SOLUBILITY>  (1) 
6.79e-02 g/l

>  <DATABASE_ID>  (1) 
DB06605

>  <DATABASE_NAME>  (1) 
drugbank

>  <DRUGBANK_ID>  (1) 
DB06605

>  <DRUG_GROUPS>  (1) 
approved

>  <EXACT_MASS>  (1) 
459.190654313

>  <FORMULA>  (1) 
C25H25N5O4

>  <GENERIC_NAME>  (1) 
Apixaban

>  <INCHI_IDENTIFIER>  (1) 
InChI=1S/C25H25N5O4/c1-34-19-11-9-18(10-12-19)30-23-20(22(27-30)24(26)32)13-15-29(25(23)33)17-7-5-16(6-8-17)28-14-3-2-4-21(28)31/h5-12H,2-4,13-15H2,1H3,(H2,26,32)

>  <INCHI_KEY>  (1) 
QNZCBYKSOIHPEH-UHFFFAOYSA-N

>  <JCHEM_ACCEPTOR_COUNT>  (1) 
5

>  <JCHEM_AVERAGE_POLARIZABILITY>  (1) 
49.62412629014736

>  <JCHEM_BIOAVAILABILITY>  (1) 
1

>  <JCHEM_DONOR_COUNT>  (1) 
1

>  <JCHEM_FORMAL_CHARGE>  (1) 
0

>  <JCHEM_GHOSE_FILTER>  (1) 
1

>  <JCHEM_IUPAC>  (1) 
1-(4-methoxyphenyl)-7-oxo-6-[4-(2-oxopiperidin-1-yl)phenyl]-1H,4H,5H,6H,7H-pyrazolo[3,4-c]pyridine-3-carboxamide

>  <JCHEM_LOGP>  (1) 
1.8270722460000008

>  <JCHEM_MDDR_LIKE_RULE>  (1) 
0

>  <JCHEM_NUMBER_OF_RINGS>  (1) 
5

>  <JCHEM_PHYSIOLOGICAL_CHARGE>  (1) 
0

>  <JCHEM_PKA_STRONGEST_ACIDIC>  (1) 
13.119041854889453

>  <JCHEM_PKA_STRONGEST_BASIC>  (1) 
-1.623309977523359

>  <JCHEM_POLAR_SURFACE_AREA>  (1) 
110.75999999999999

>  <JCHEM_REFRACTIVITY>  (1) 
126.90100000000001

>  <JCHEM_ROTATABLE_BOND_COUNT>  (1) 
5

>  <JCHEM_RULE_OF_FIVE>  (1) 
1

>  <JCHEM_TRADITIONAL_IUPAC>  (1) 
apixaban

>  <JCHEM_VEBER_RULE>  (1) 
0

>  <MOLECULAR_WEIGHT>  (1) 
459.4971

>  <PRODUCTS>  (1) 
Eliquis

>  <SECONDARY_ACCESSION_NUMBERS>  (1) 
DB07828

>  <SMILES>  (1) 
COC1=CC=C(C=C1)N1N=C(C(N)=O)C2=C1C(=O)N(CC2)C1=CC=C(C=C1)N1CCCCC1=O

>  <SYNONYMS>  (1) 
apixab√°n; apixabanum

$$$$
