
     RDKit          2D

 35 36  0  0  0  0  0  0  0  0999 V2000
    2.3645    0.8332    0.0000 O   0  0  0  0  0  0  0  0  0  0  0  0
    7.3649   -1.2827    0.0000 O   0  0  0  0  0  0  0  0  0  0  0  0
    5.9361   -1.2661    0.0000 N   0  0  0  0  0  0  0  0  0  0  0  0
    5.2455    0.8046    0.0000 C   0  0  0  0  0  0  0  0  0  0  0  0
    5.2360   -0.0204    0.0000 C   0  0  0  0  0  0  0  0  0  0  0  0
    4.5080    1.2457    0.0000 C   0  0  0  0  0  0  0  0  0  0  0  0
    4.5080    2.0707    0.0000 C   0  0  0  0  0  0  0  0  0  0  0  0
    5.9457   -0.4411    0.0000 C   0  0  0  0  0  0  0  0  0  0  0  0
    5.9930    1.2285    0.0000 C   0  0  0  0  0  0  0  0  0  0  0  0
    3.7935    0.8332    0.0000 C   0  0  0  0  0  0  0  0  0  0  0  0
    5.2455    2.5118    0.0000 C   0  0  0  0  0  0  0  0  0  0  0  0
    3.7935    2.4832    0.0000 C   0  0  0  0  0  0  0  0  0  0  0  0
    5.9930    2.0879    0.0000 C   0  0  0  0  0  0  0  0  0  0  0  0
    3.0791    1.2457    0.0000 C   0  0  0  0  0  0  0  0  0  0  0  0
    3.0791    2.0707    0.0000 C   0  0  0  0  0  0  0  0  0  0  0  0
    6.6458   -1.6868    0.0000 C   0  0  0  0  0  0  0  0  0  0  0  0
    6.6362   -2.5118    0.0000 C   0  0  0  0  0  0  0  0  0  0  0  0
    1.6500    1.2457    0.0000 C   0  0  0  0  0  0  0  0  0  0  0  0
    0.0000    0.0000    0.0000 H   0  0  0  0  0  0  0  0  0  0  0  0
    0.0000    0.0000    0.0000 H   0  0  0  0  0  0  0  0  0  0  0  0
    0.0000    0.0000    0.0000 H   0  0  0  0  0  0  0  0  0  0  0  0
    0.0000    0.0000    0.0000 H   0  0  0  0  0  0  0  0  0  0  0  0
    0.0000    0.0000    0.0000 H   0  0  0  0  0  0  0  0  0  0  0  0
    0.0000    0.0000    0.0000 H   0  0  0  0  0  0  0  0  0  0  0  0
    0.0000    0.0000    0.0000 H   0  0  0  0  0  0  0  0  0  0  0  0
    0.0000    0.0000    0.0000 H   0  0  0  0  0  0  0  0  0  0  0  0
    0.0000    0.0000    0.0000 H   0  0  0  0  0  0  0  0  0  0  0  0
    0.0000    0.0000    0.0000 H   0  0  0  0  0  0  0  0  0  0  0  0
    0.0000    0.0000    0.0000 H   0  0  0  0  0  0  0  0  0  0  0  0
    0.0000    0.0000    0.0000 H   0  0  0  0  0  0  0  0  0  0  0  0
    0.0000    0.0000    0.0000 H   0  0  0  0  0  0  0  0  0  0  0  0
    0.0000    0.0000    0.0000 H   0  0  0  0  0  0  0  0  0  0  0  0
    0.0000    0.0000    0.0000 H   0  0  0  0  0  0  0  0  0  0  0  0
    0.0000    0.0000    0.0000 H   0  0  0  0  0  0  0  0  0  0  0  0
    0.0000    0.0000    0.0000 H   0  0  0  0  0  0  0  0  0  0  0  0
  1 14  1  0
  1 18  1  0
  2 16  2  0
  3  8  1  0
  3 16  1  0
  4  5  1  0
  4  6  2  0
  4  9  1  0
  5  8  1  0
  6  7  1  0
  6 10  1  0
  7 11  2  0
  7 12  1  0
  9 13  2  0
 10 14  2  0
 11 13  1  0
 12 15  2  0
 14 15  1  0
 16 17  1  0
  3 19  1  0
  5 20  1  0
  5 21  1  0
  8 22  1  0
  8 23  1  0
  9 24  1  0
 10 25  1  0
 11 26  1  0
 12 27  1  0
 13 28  1  0
 15 29  1  0
 17 30  1  0
 17 31  1  0
 17 32  1  0
 18 33  1  0
 18 34  1  0
 18 35  1  0
M  END
>  <ALOGPS_LOGP>  (1) 
2.83

>  <ALOGPS_LOGS>  (1) 
-4.50

>  <ALOGPS_SOLUBILITY>  (1) 
7.76e-03 g/l

>  <DATABASE_ID>  (1) 
DB06594

>  <DATABASE_NAME>  (1) 
drugbank

>  <DRUGBANK_ID>  (1) 
DB06594

>  <DRUG_GROUPS>  (1) 
approved; investigational

>  <EXACT_MASS>  (1) 
243.125928793

>  <FORMULA>  (1) 
C15H17NO2

>  <GENERIC_NAME>  (1) 
Agomelatine

>  <INCHI_IDENTIFIER>  (1) 
InChI=1S/C15H17NO2/c1-11(17)16-9-8-13-5-3-4-12-6-7-14(18-2)10-15(12)13/h3-7,10H,8-9H2,1-2H3,(H,16,17)

>  <INCHI_KEY>  (1) 
YJYPHIXNFHFHND-UHFFFAOYSA-N

>  <INTERNATIONAL_BRANDS>  (1) 
Melitor; Valdoxan

>  <JCHEM_ACCEPTOR_COUNT>  (1) 
2

>  <JCHEM_AVERAGE_POLARIZABILITY>  (1) 
27.17506315193257

>  <JCHEM_BIOAVAILABILITY>  (1) 
1

>  <JCHEM_DONOR_COUNT>  (1) 
1

>  <JCHEM_FORMAL_CHARGE>  (1) 
0

>  <JCHEM_GHOSE_FILTER>  (1) 
1

>  <JCHEM_IUPAC>  (1) 
N-[2-(7-methoxynaphthalen-1-yl)ethyl]acetamide

>  <JCHEM_LOGP>  (1) 
2.038327551

>  <JCHEM_MDDR_LIKE_RULE>  (1) 
0

>  <JCHEM_NUMBER_OF_RINGS>  (1) 
2

>  <JCHEM_PHYSIOLOGICAL_CHARGE>  (1) 
0

>  <JCHEM_PKA_STRONGEST_ACIDIC>  (1) 
15.96453318039661

>  <JCHEM_PKA_STRONGEST_BASIC>  (1) 
-0.9409155616357626

>  <JCHEM_POLAR_SURFACE_AREA>  (1) 
38.33

>  <JCHEM_REFRACTIVITY>  (1) 
71.64360000000002

>  <JCHEM_ROTATABLE_BOND_COUNT>  (1) 
4

>  <JCHEM_RULE_OF_FIVE>  (1) 
1

>  <JCHEM_TRADITIONAL_IUPAC>  (1) 
agomelatine

>  <JCHEM_VEBER_RULE>  (1) 
1

>  <MOLECULAR_WEIGHT>  (1) 
243.301

>  <SMILES>  (1) 
COC1=CC2=C(C=CC=C2CCNC(C)=O)C=C1

$$$$
