 
     RDKit          2D

 65 68  0  0  0  0  0  0  0  0999 V2000
    5.8656  -12.7691    0.0000 C   0  0  0  0  0  0  0  0  0  0  0  0
    5.8656  -13.5941    0.0000 C   0  0  0  0  0  0  0  0  0  0  0  0
    6.5801  -14.0066    0.0000 C   0  0  0  0  0  0  0  0  0  0  0  0
    7.2945  -13.5941    0.0000 C   0  0  0  0  0  0  0  0  0  0  0  0
    7.2945  -12.7691    0.0000 C   0  0  0  0  0  0  0  0  0  0  0  0
    6.5801  -12.3567    0.0000 N   0  0  0  0  0  0  0  0  0  0  0  0
    8.0090  -14.0066    0.0000 C   0  0  0  0  0  0  0  0  0  0  0  0
    8.7235  -13.5941    0.0000 C   0  0  0  0  0  0  0  0  0  0  0  0
    8.7235  -12.7691    0.0000 C   0  0  0  0  0  0  0  0  0  0  0  0
    8.0090  -12.3567    0.0000 C   0  0  0  0  0  0  0  0  0  0  0  0
    6.5801  -14.8317    0.0000 N   0  0  0  0  0  0  0  0  0  0  0  0
    9.4395  -12.3568    0.0000 O   0  0  0  0  0  0  0  0  0  0  0  0
   10.1551  -12.7699    0.0000 C   0  0  0  0  0  0  0  0  0  0  0  0
    7.2949  -15.2444    0.0000 C   0  0  0  0  0  0  0  0  0  0  0  0
    7.2949  -16.0692    0.0000 C   0  0  0  0  0  0  0  0  0  0  0  0
    8.0094  -16.4817    0.0000 C   0  0  0  0  0  0  0  0  0  0  0  0
    8.7238  -16.0692    0.0000 C   0  0  0  0  0  0  0  0  0  0  0  0
    8.7238  -15.2444    0.0000 C   0  0  0  0  0  0  0  0  0  0  0  0
    8.0094  -14.8319    0.0000 C   0  0  0  0  0  0  0  0  0  0  0  0
    9.4396  -16.4824    0.0000 Cl  0  0  0  0  0  0  0  0  0  0  0  0
   10.8576  -12.3647    0.0000 C   0  0  0  0  0  0  0  0  0  0  0  0
   11.5726  -12.7778    0.0000 C   0  0  0  0  0  0  0  0  0  0  0  0
   12.2682  -12.3764    0.0000 N   0  0  0  0  0  0  0  0  0  0  0  0
   12.9728  -12.7837    0.0000 C   0  0  0  0  0  0  0  0  0  0  0  0
   13.6880  -12.3712    0.0000 C   0  0  0  0  0  0  0  0  0  0  0  0
   13.6883  -11.5456    0.0000 N   0  0  0  0  0  0  0  0  0  0  0  0
   12.9837  -11.1383    0.0000 C   0  0  0  0  0  0  0  0  0  0  0  0
   12.2685  -11.5508    0.0000 C   0  0  0  0  0  0  0  0  0  0  0  0
    9.4318  -14.0241    0.0000 O   0  0  0  0  0  0  0  0  0  0  0  0
   10.1505  -13.6092    0.0000 C   0  0  0  0  0  0  0  0  0  0  0  0
    6.5871  -16.4777    0.0000 Cl  0  0  0  0  0  0  0  0  0  0  0  0
    9.4416  -14.8299    0.0000 O   0  0  0  0  0  0  0  0  0  0  0  0
   10.1661  -15.2484    0.0000 C   0  0  0  0  0  0  0  0  0  0  0  0
    5.1289  -14.0193    0.0000 C   0  0  0  0  0  0  0  0  0  0  0  0
    4.4102  -14.4342    0.0000 N   0  0  0  0  0  0  0  0  0  0  0  0
   14.4148  -11.1267    0.0000 C   0  0  0  0  0  0  0  0  0  0  0  0
    0.0000    0.0000    0.0000 H   0  0  0  0  0  0  0  0  0  0  0  0
    0.0000    0.0000    0.0000 H   0  0  0  0  0  0  0  0  0  0  0  0
    0.0000    0.0000    0.0000 H   0  0  0  0  0  0  0  0  0  0  0  0
    0.0000    0.0000    0.0000 H   0  0  0  0  0  0  0  0  0  0  0  0
    0.0000    0.0000    0.0000 H   0  0  0  0  0  0  0  0  0  0  0  0
    0.0000    0.0000    0.0000 H   0  0  0  0  0  0  0  0  0  0  0  0
    0.0000    0.0000    0.0000 H   0  0  0  0  0  0  0  0  0  0  0  0
    0.0000    0.0000    0.0000 H   0  0  0  0  0  0  0  0  0  0  0  0
    0.0000    0.0000    0.0000 H   0  0  0  0  0  0  0  0  0  0  0  0
    0.0000    0.0000    0.0000 H   0  0  0  0  0  0  0  0  0  0  0  0
    0.0000    0.0000    0.0000 H   0  0  0  0  0  0  0  0  0  0  0  0
    0.0000    0.0000    0.0000 H   0  0  0  0  0  0  0  0  0  0  0  0
    0.0000    0.0000    0.0000 H   0  0  0  0  0  0  0  0  0  0  0  0
    0.0000    0.0000    0.0000 H   0  0  0  0  0  0  0  0  0  0  0  0
    0.0000    0.0000    0.0000 H   0  0  0  0  0  0  0  0  0  0  0  0
    0.0000    0.0000    0.0000 H   0  0  0  0  0  0  0  0  0  0  0  0
    0.0000    0.0000    0.0000 H   0  0  0  0  0  0  0  0  0  0  0  0
    0.0000    0.0000    0.0000 H   0  0  0  0  0  0  0  0  0  0  0  0
    0.0000    0.0000    0.0000 H   0  0  0  0  0  0  0  0  0  0  0  0
    0.0000    0.0000    0.0000 H   0  0  0  0  0  0  0  0  0  0  0  0
    0.0000    0.0000    0.0000 H   0  0  0  0  0  0  0  0  0  0  0  0
    0.0000    0.0000    0.0000 H   0  0  0  0  0  0  0  0  0  0  0  0
    0.0000    0.0000    0.0000 H   0  0  0  0  0  0  0  0  0  0  0  0
    0.0000    0.0000    0.0000 H   0  0  0  0  0  0  0  0  0  0  0  0
    0.0000    0.0000    0.0000 H   0  0  0  0  0  0  0  0  0  0  0  0
    0.0000    0.0000    0.0000 H   0  0  0  0  0  0  0  0  0  0  0  0
    0.0000    0.0000    0.0000 H   0  0  0  0  0  0  0  0  0  0  0  0
    0.0000    0.0000    0.0000 H   0  0  0  0  0  0  0  0  0  0  0  0
    0.0000    0.0000    0.0000 H   0  0  0  0  0  0  0  0  0  0  0  0
  1  2  2  0
  2  3  1  0
  3  4  2  0
  4  5  1  0
  5  6  2  0
  1  6  1  0
  4  7  1  0
  7  8  2  0
  8  9  1  0
  9 10  2  0
  5 10  1  0
  3 11  1  0
  9 12  1  0
 12 13  1  0
 11 14  1  0
 14 15  2  0
 15 16  1  0
 16 17  2  0
 17 18  1  0
 18 19  2  0
 14 19  1  0
 17 20  1  0
 13 21  1  0
 21 22  1  0
 22 23  1  0
 23 24  1  0
 24 25  1  0
 25 26  1  0
 26 27  1  0
 27 28  1  0
 23 28  1  0
  8 29  1  0
 29 30  1  0
 15 31  1  0
 18 32  1  0
 32 33  1  0
  2 34  1  0
 34 35  3  0
 26 36  1  0
  1 37  1  0
  7 38  1  0
 10 39  1  0
 11 40  1  0
 13 41  1  0
 13 42  1  0
 16 43  1  0
 19 44  1  0
 21 45  1  0
 21 46  1  0
 22 47  1  0
 22 48  1  0
 24 49  1  0
 24 50  1  0
 25 51  1  0
 25 52  1  0
 27 53  1  0
 27 54  1  0
 28 55  1  0
 28 56  1  0
 30 57  1  0
 30 58  1  0
 30 59  1  0
 33 60  1  0
 33 61  1  0
 33 62  1  0
 36 63  1  0
 36 64  1  0
 36 65  1  0
M  END
>  <ALOGPS_LOGP>  (1) 
4.87

>  <ALOGPS_LOGS>  (1) 
-4.75

>  <ALOGPS_SOLUBILITY>  (1) 
9.50e-03 g/l

>  <DATABASE_ID>  (1) 
DB06616

>  <DATABASE_NAME>  (1) 
drugbank

>  <DRUGBANK_ID>  (1) 
DB06616

>  <DRUG_GROUPS>  (1) 
approved

>  <EXACT_MASS>  (1) 
529.164745233

>  <FORMULA>  (1) 
C26H29Cl2N5O3

>  <GENERIC_NAME>  (1) 
Bosutinib

>  <INCHI_IDENTIFIER>  (1) 
InChI=1S/C26H29Cl2N5O3/c1-32-6-8-33(9-7-32)5-4-10-36-25-13-21-18(11-24(25)35-3)26(17(15-29)16-30-21)31-22-14-23(34-2)20(28)12-19(22)27/h11-14,16H,4-10H2,1-3H3,(H,30,31)

>  <INCHI_KEY>  (1) 
UBPYILGKFZZVDX-UHFFFAOYSA-N

>  <JCHEM_ACCEPTOR_COUNT>  (1) 
8

>  <JCHEM_AVERAGE_POLARIZABILITY>  (1) 
56.142286965511715

>  <JCHEM_BIOAVAILABILITY>  (1) 
1

>  <JCHEM_DONOR_COUNT>  (1) 
1

>  <JCHEM_FORMAL_CHARGE>  (1) 
0

>  <JCHEM_GHOSE_FILTER>  (1) 
0

>  <JCHEM_IUPAC>  (1) 
4-[(2,4-dichloro-5-methoxyphenyl)amino]-6-methoxy-7-[3-(4-methylpiperazin-1-yl)propoxy]quinoline-3-carbonitrile

>  <JCHEM_LOGP>  (1) 
4.087721830999999

>  <JCHEM_MDDR_LIKE_RULE>  (1) 
1

>  <JCHEM_NUMBER_OF_RINGS>  (1) 
4

>  <JCHEM_PHYSIOLOGICAL_CHARGE>  (1) 
1

>  <JCHEM_PKA_STRONGEST_ACIDIC>  (1) 
15.477387614447181

>  <JCHEM_PKA_STRONGEST_BASIC>  (1) 
8.428822002983459

>  <JCHEM_POLAR_SURFACE_AREA>  (1) 
82.88000000000002

>  <JCHEM_REFRACTIVITY>  (1) 
142.12089999999995

>  <JCHEM_ROTATABLE_BOND_COUNT>  (1) 
9

>  <JCHEM_RULE_OF_FIVE>  (1) 
0

>  <JCHEM_TRADITIONAL_IUPAC>  (1) 
bosutinib

>  <JCHEM_VEBER_RULE>  (1) 
0

>  <MOLECULAR_WEIGHT>  (1) 
530.446

>  <PRODUCTS>  (1) 
Bosulif

>  <SMILES>  (1) 
COC1=CC(NC2=C(C=NC3=CC(OCCCN4CCN(C)CC4)=C(OC)C=C23)C#N)=C(Cl)C=C1Cl

>  <SYNONYMS>  (1) 
BosulifÂ®; Bosutinib Monohydrate

$$$$
