
     RDKit          2D

 69 73  0  0  0  0  0  0  0  0999 V2000
    1.0881   -1.0518    0.0000 N   0  0  0  0  0  0  0  0  0  0  0  0
    1.5802   -1.7178    0.0000 C   0  0  0  0  0  0  0  0  0  0  0  0
    1.0881   -2.3836    0.0000 C   0  0  0  0  0  0  0  0  0  0  0  0
    0.3064   -2.1327    0.0000 C   0  0  0  0  0  0  0  0  0  0  0  0
    0.3064   -1.3076    0.0000 C   0  0  0  0  0  0  0  0  0  0  0  0
    1.3486   -0.2653    0.0000 C   0  0  0  0  0  0  0  0  0  0  0  0
    2.4053   -1.7178    0.0000 C   0  0  0  0  0  0  0  0  0  0  0  0
   -0.4029   -0.8927    0.0000 C   0  0  0  0  0  0  0  0  0  0  0  0
   -0.4029   -2.5429    0.0000 C   0  0  0  0  0  0  0  0  0  0  0  0
   -3.0085    2.4850    0.0000 N   0  0  0  0  0  0  0  0  0  0  0  0
    2.8107   -1.0036    0.0000 C   0  0  0  0  0  0  0  0  0  0  0  0
    2.8107   -2.4271    0.0000 C   0  0  0  0  0  0  0  0  0  0  0  0
    0.7985    0.3426    0.0000 C   0  0  0  0  0  0  0  0  0  0  0  0
   -1.1170   -2.1327    0.0000 C   0  0  0  0  0  0  0  0  0  0  0  0
    1.3486   -3.1653    0.0000 C   0  0  0  0  0  0  0  0  0  0  0  0
   -1.1170   -1.3076    0.0000 C   0  0  0  0  0  0  0  0  0  0  0  0
    4.0507   -1.7178    0.0000 C   0  0  0  0  0  0  0  0  0  0  0  0
   -0.3064    1.5681    0.0000 C   0  0  0  0  0  0  0  0  0  0  0  0
    3.6358   -2.4271    0.0000 C   0  0  0  0  0  0  0  0  0  0  0  0
    3.6358   -1.0036    0.0000 C   0  0  0  0  0  0  0  0  0  0  0  0
   -0.0119    0.1785    0.0000 C   0  0  0  0  0  0  0  0  0  0  0  0
    1.0543    1.1338    0.0000 C   0  0  0  0  0  0  0  0  0  0  0  0
    0.4945    1.7419    0.0000 C   0  0  0  0  0  0  0  0  0  0  0  0
   -0.5621    0.7865    0.0000 C   0  0  0  0  0  0  0  0  0  0  0  0
   -0.8661    2.1906    0.0000 O   0  0  0  0  0  0  0  0  0  0  0  0
   -2.2123    2.6442    0.0000 C   0  0  0  0  0  0  0  0  0  0  0  0
   -1.8359   -2.5429    0.0000 O   0  0  0  0  0  0  0  0  0  0  0  0
    4.8758   -1.7178    0.0000 O   0  0  0  0  0  0  0  0  0  0  0  0
   -1.6671    2.0313    0.0000 C   0  0  0  0  0  0  0  0  0  0  0  0
   -3.5200    3.1364    0.0000 C   0  0  0  0  0  0  0  0  0  0  0  0
   -3.2160    1.6743    0.0000 C   0  0  0  0  0  0  0  0  0  0  0  0
   -3.9784    1.3510    0.0000 C   0  0  0  0  0  0  0  0  0  0  0  0
   -4.3402    3.1653    0.0000 C   0  0  0  0  0  0  0  0  0  0  0  0
   -4.8758    2.5380    0.0000 C   0  0  0  0  0  0  0  0  0  0  0  0
   -4.7166    1.7273    0.0000 C   0  0  0  0  0  0  0  0  0  0  0  0
    0.0000    0.0000    0.0000 H   0  0  0  0  0  0  0  0  0  0  0  0
    0.0000    0.0000    0.0000 H   0  0  0  0  0  0  0  0  0  0  0  0
    0.0000    0.0000    0.0000 H   0  0  0  0  0  0  0  0  0  0  0  0
    0.0000    0.0000    0.0000 H   0  0  0  0  0  0  0  0  0  0  0  0
    0.0000    0.0000    0.0000 H   0  0  0  0  0  0  0  0  0  0  0  0
    0.0000    0.0000    0.0000 H   0  0  0  0  0  0  0  0  0  0  0  0
    0.0000    0.0000    0.0000 H   0  0  0  0  0  0  0  0  0  0  0  0
    0.0000    0.0000    0.0000 H   0  0  0  0  0  0  0  0  0  0  0  0
    0.0000    0.0000    0.0000 H   0  0  0  0  0  0  0  0  0  0  0  0
    0.0000    0.0000    0.0000 H   0  0  0  0  0  0  0  0  0  0  0  0
    0.0000    0.0000    0.0000 H   0  0  0  0  0  0  0  0  0  0  0  0
    0.0000    0.0000    0.0000 H   0  0  0  0  0  0  0  0  0  0  0  0
    0.0000    0.0000    0.0000 H   0  0  0  0  0  0  0  0  0  0  0  0
    0.0000    0.0000    0.0000 H   0  0  0  0  0  0  0  0  0  0  0  0
    0.0000    0.0000    0.0000 H   0  0  0  0  0  0  0  0  0  0  0  0
    0.0000    0.0000    0.0000 H   0  0  0  0  0  0  0  0  0  0  0  0
    0.0000    0.0000    0.0000 H   0  0  0  0  0  0  0  0  0  0  0  0
    0.0000    0.0000    0.0000 H   0  0  0  0  0  0  0  0  0  0  0  0
    0.0000    0.0000    0.0000 H   0  0  0  0  0  0  0  0  0  0  0  0
    0.0000    0.0000    0.0000 H   0  0  0  0  0  0  0  0  0  0  0  0
    0.0000    0.0000    0.0000 H   0  0  0  0  0  0  0  0  0  0  0  0
    0.0000    0.0000    0.0000 H   0  0  0  0  0  0  0  0  0  0  0  0
    0.0000    0.0000    0.0000 H   0  0  0  0  0  0  0  0  0  0  0  0
    0.0000    0.0000    0.0000 H   0  0  0  0  0  0  0  0  0  0  0  0
    0.0000    0.0000    0.0000 H   0  0  0  0  0  0  0  0  0  0  0  0
    0.0000    0.0000    0.0000 H   0  0  0  0  0  0  0  0  0  0  0  0
    0.0000    0.0000    0.0000 H   0  0  0  0  0  0  0  0  0  0  0  0
    0.0000    0.0000    0.0000 H   0  0  0  0  0  0  0  0  0  0  0  0
    0.0000    0.0000    0.0000 H   0  0  0  0  0  0  0  0  0  0  0  0
    0.0000    0.0000    0.0000 H   0  0  0  0  0  0  0  0  0  0  0  0
    0.0000    0.0000    0.0000 H   0  0  0  0  0  0  0  0  0  0  0  0
    0.0000    0.0000    0.0000 H   0  0  0  0  0  0  0  0  0  0  0  0
    0.0000    0.0000    0.0000 H   0  0  0  0  0  0  0  0  0  0  0  0
    0.0000    0.0000    0.0000 H   0  0  0  0  0  0  0  0  0  0  0  0
  2  1  1  0
  3  2  2  0
  4  5  2  0
  5  1  1  0
  6  1  1  0
  7  2  1  0
  8  5  1  0
  9  4  1  0
 10 26  1  0
 11  7  2  0
 12  7  1  0
 13  6  1  0
 14 16  1  0
 15  3  1  0
 16  8  2  0
 17 19  1  0
 18 24  2  0
 19 12  2  0
 20 11  1  0
 21 13  2  0
 22 13  1  0
 23 22  2  0
 24 21  1  0
 25 18  1  0
 26 29  1  0
 27 14  1  0
 28 17  1  0
 29 25  1  0
 30 10  1  0
 31 10  1  0
 32 31  1  0
 33 30  1  0
 34 33  1  0
 35 32  1  0
  3  4  1  0
 20 17  2  0
 23 18  1  0
  9 14  2  0
 35 34  1  0
  6 36  1  0
  6 37  1  0
  8 38  1  0
  9 39  1  0
 11 40  1  0
 12 41  1  0
 15 42  1  0
 15 43  1  0
 15 44  1  0
 16 45  1  0
 19 46  1  0
 20 47  1  0
 21 48  1  0
 22 49  1  0
 23 50  1  0
 24 51  1  0
 26 52  1  0
 26 53  1  0
 27 54  1  0
 28 55  1  0
 29 56  1  0
 29 57  1  0
 30 58  1  0
 30 59  1  0
 31 60  1  0
 31 61  1  0
 32 62  1  0
 32 63  1  0
 33 64  1  0
 33 65  1  0
 34 66  1  0
 34 67  1  0
 35 68  1  0
 35 69  1  0
M  END
>  <ALOGPS_LOGP>  (1) 
6.03

>  <ALOGPS_LOGS>  (1) 
-5.92

>  <ALOGPS_SOLUBILITY>  (1) 
5.64e-04 g/l

>  <DATABASE_ID>  (1) 
DB06401

>  <DATABASE_NAME>  (1) 
drugbank

>  <DRUGBANK_ID>  (1) 
DB06401

>  <DRUG_GROUPS>  (1) 
approved; investigational

>  <EXACT_MASS>  (1) 
470.256942963

>  <FORMULA>  (1) 
C30H34N2O3

>  <GENERIC_NAME>  (1) 
Bazedoxifene

>  <INCHI_IDENTIFIER>  (1) 
InChI=1S/C30H34N2O3/c1-22-28-20-26(34)12-15-29(28)32(30(22)24-8-10-25(33)11-9-24)21-23-6-13-27(14-7-23)35-19-18-31-16-4-2-3-5-17-31/h6-15,20,33-34H,2-5,16-19,21H2,1H3

>  <INCHI_KEY>  (1) 
UCJGJABZCDBEDK-UHFFFAOYSA-N

>  <JCHEM_ACCEPTOR_COUNT>  (1) 
4

>  <JCHEM_ATOM_COUNT>  (1) 
69

>  <JCHEM_AVERAGE_POLARIZABILITY>  (1) 
54.05768281397682

>  <JCHEM_BIOAVAILABILITY>  (1) 
1

>  <JCHEM_DONOR_COUNT>  (1) 
2

>  <JCHEM_FORMAL_CHARGE>  (1) 
0

>  <JCHEM_GHOSE_FILTER>  (1) 
0

>  <JCHEM_IUPAC>  (1) 
1-({4-[2-(azepan-1-yl)ethoxy]phenyl}methyl)-2-(4-hydroxyphenyl)-3-methyl-1H-indol-5-ol

>  <JCHEM_LOGP>  (1) 
6.005592582323557

>  <JCHEM_MDDR_LIKE_RULE>  (1) 
1

>  <JCHEM_NUMBER_OF_RINGS>  (1) 
5

>  <JCHEM_PHYSIOLOGICAL_CHARGE>  (1) 
1

>  <JCHEM_PKA>  (1) 
10.214503021558569

>  <JCHEM_PKA_STRONGEST_ACIDIC>  (1) 
9.62655264121086

>  <JCHEM_PKA_STRONGEST_BASIC>  (1) 
9.085709348452456

>  <JCHEM_POLAR_SURFACE_AREA>  (1) 
57.86

>  <JCHEM_REFRACTIVITY>  (1) 
141.8958

>  <JCHEM_ROTATABLE_BOND_COUNT>  (1) 
7

>  <JCHEM_RULE_OF_FIVE>  (1) 
0

>  <JCHEM_TRADITIONAL_IUPAC>  (1) 
bazedoxifene

>  <JCHEM_VEBER_RULE>  (1) 
0

>  <MOLECULAR_WEIGHT>  (1) 
470.613

>  <PRODUCTS>  (1) 
Duavee; Duavive

>  <SALTS>  (1) 
Bazedoxifene acetate

>  <SMILES>  (1) 
CC1=C(N(CC2=CC=C(OCCN3CCCCCC3)C=C2)C2=C1C=C(O)C=C2)C1=CC=C(O)C=C1

$$$$
