
     RDKit          2D

 51 53  0  0  0  0  0  0  0  0999 V2000
    0.7867   -1.0278    0.0000 O   0  0  0  0  0  0  0  0  0  0  0  0
    0.0741   -1.4392    0.0000 C   0  0  0  0  0  0  0  0  0  0  0  0
    0.0741   -2.2620    0.0000 C   0  0  0  0  0  0  0  0  0  0  0  0
    0.7883   -2.6799    0.0000 C   0  0  0  0  0  0  0  0  0  0  0  0
    1.5763   -2.4240    0.0000 O   0  0  0  0  0  0  0  0  0  0  0  0
    2.0634   -3.0942    0.0000 C   0  0  0  0  0  0  0  0  0  0  0  0
    1.5763   -3.7646    0.0000 C   0  0  0  0  0  0  0  0  0  0  0  0
    0.7883   -3.5085    0.0000 C   0  0  0  0  0  0  0  0  0  0  0  0
    0.0741   -3.9170    0.0000 C   0  0  0  0  0  0  0  0  0  0  0  0
    0.0741   -4.7398    0.0000 N   0  0  0  0  0  0  0  0  0  0  0  0
   -0.6399   -3.5075    0.0000 C   0  0  0  0  0  0  0  0  0  0  0  0
   -1.3519   -3.9199    0.0000 Cl  0  0  0  0  0  0  0  0  0  0  0  0
   -0.6399   -2.6799    0.0000 C   0  0  0  0  0  0  0  0  0  0  0  0
   -0.6383   -1.0278    0.0000 N   0  0  0  0  0  0  0  0  0  0  0  0
   -0.6383   -0.2051    0.0000 C   0  0  0  0  0  0  0  0  0  0  0  0
   -1.3520    0.2041    0.0000 C   0  0  0  0  0  0  0  0  0  0  0  0
   -1.3520    1.0311    0.0000 C   0  0  0  0  0  0  0  0  0  0  0  0
   -0.6383    1.4488    0.0000 N   0  0  0  0  0  0  0  0  0  0  0  0
   -0.6383    2.2715    0.0000 C   0  0  0  0  0  0  0  0  0  0  0  0
   -1.3508    2.6829    0.0000 C   0  0  0  0  0  0  0  0  0  0  0  0
   -1.3508    3.5056    0.0000 C   0  0  0  0  0  0  0  0  0  0  0  0
   -2.0634    3.9170    0.0000 O   0  0  0  0  0  0  0  0  0  0  0  0
   -2.0634    4.7398    0.0000 C   0  0  0  0  0  0  0  0  0  0  0  0
    0.0754    1.0311    0.0000 C   0  0  0  0  0  0  0  0  0  0  0  0
    0.0754    0.2041    0.0000 C   0  0  0  0  0  0  0  0  0  0  0  0
    0.0000    0.0000    0.0000 H   0  0  0  0  0  0  0  0  0  0  0  0
    0.0000    0.0000    0.0000 H   0  0  0  0  0  0  0  0  0  0  0  0
    0.0000    0.0000    0.0000 H   0  0  0  0  0  0  0  0  0  0  0  0
    0.0000    0.0000    0.0000 H   0  0  0  0  0  0  0  0  0  0  0  0
    0.0000    0.0000    0.0000 H   0  0  0  0  0  0  0  0  0  0  0  0
    0.0000    0.0000    0.0000 H   0  0  0  0  0  0  0  0  0  0  0  0
    0.0000    0.0000    0.0000 H   0  0  0  0  0  0  0  0  0  0  0  0
    0.0000    0.0000    0.0000 H   0  0  0  0  0  0  0  0  0  0  0  0
    0.0000    0.0000    0.0000 H   0  0  0  0  0  0  0  0  0  0  0  0
    0.0000    0.0000    0.0000 H   0  0  0  0  0  0  0  0  0  0  0  0
    0.0000    0.0000    0.0000 H   0  0  0  0  0  0  0  0  0  0  0  0
    0.0000    0.0000    0.0000 H   0  0  0  0  0  0  0  0  0  0  0  0
    0.0000    0.0000    0.0000 H   0  0  0  0  0  0  0  0  0  0  0  0
    0.0000    0.0000    0.0000 H   0  0  0  0  0  0  0  0  0  0  0  0
    0.0000    0.0000    0.0000 H   0  0  0  0  0  0  0  0  0  0  0  0
    0.0000    0.0000    0.0000 H   0  0  0  0  0  0  0  0  0  0  0  0
    0.0000    0.0000    0.0000 H   0  0  0  0  0  0  0  0  0  0  0  0
    0.0000    0.0000    0.0000 H   0  0  0  0  0  0  0  0  0  0  0  0
    0.0000    0.0000    0.0000 H   0  0  0  0  0  0  0  0  0  0  0  0
    0.0000    0.0000    0.0000 H   0  0  0  0  0  0  0  0  0  0  0  0
    0.0000    0.0000    0.0000 H   0  0  0  0  0  0  0  0  0  0  0  0
    0.0000    0.0000    0.0000 H   0  0  0  0  0  0  0  0  0  0  0  0
    0.0000    0.0000    0.0000 H   0  0  0  0  0  0  0  0  0  0  0  0
    0.0000    0.0000    0.0000 H   0  0  0  0  0  0  0  0  0  0  0  0
    0.0000    0.0000    0.0000 H   0  0  0  0  0  0  0  0  0  0  0  0
    0.0000    0.0000    0.0000 H   0  0  0  0  0  0  0  0  0  0  0  0
  1  2  2  0
  2  3  1  0
  2 14  1  0
  3  4  2  0
  3 13  1  0
  4  5  1  0
  4  8  1  0
  5  6  1  0
  6  7  1  0
  7  8  1  0
  8  9  2  0
  9 10  1  0
  9 11  1  0
 11 12  1  0
 11 13  2  0
 14 15  1  0
 15 16  1  0
 15 25  1  0
 16 17  1  0
 17 18  1  0
 18 19  1  0
 18 24  1  0
 19 20  1  0
 20 21  1  0
 21 22  1  0
 22 23  1  0
 24 25  1  0
  6 26  1  0
  6 27  1  0
  7 28  1  0
  7 29  1  0
 10 30  1  0
 10 31  1  0
 13 32  1  0
 14 33  1  0
 15 34  1  0
 16 35  1  0
 16 36  1  0
 17 37  1  0
 17 38  1  0
 19 39  1  0
 19 40  1  0
 20 41  1  0
 20 42  1  0
 21 43  1  0
 21 44  1  0
 23 45  1  0
 23 46  1  0
 23 47  1  0
 24 48  1  0
 24 49  1  0
 25 50  1  0
 25 51  1  0
M  END
>  <ALOGPS_LOGP>  (1) 
2.09

>  <ALOGPS_LOGS>  (1) 
-3.46

>  <ALOGPS_SOLUBILITY>  (1) 
1.29e-01 g/l

>  <DATABASE_ID>  (1) 
DB06480

>  <DATABASE_NAME>  (1) 
drugbank

>  <DRUGBANK_ID>  (1) 
DB06480

>  <DRUG_GROUPS>  (1) 
approved

>  <EXACT_MASS>  (1) 
367.1662694

>  <FORMULA>  (1) 
C18H26ClN3O3

>  <GENERIC_NAME>  (1) 
Prucalopride

>  <INCHI_IDENTIFIER>  (1) 
InChI=1S/C18H26ClN3O3/c1-24-9-2-6-22-7-3-12(4-8-22)21-18(23)14-11-15(19)16(20)13-5-10-25-17(13)14/h11-12H,2-10,20H2,1H3,(H,21,23)

>  <INCHI_KEY>  (1) 
ZPMNHBXQOOVQJL-UHFFFAOYSA-N

>  <JCHEM_ACCEPTOR_COUNT>  (1) 
5

>  <JCHEM_ATOM_COUNT>  (1) 
51

>  <JCHEM_AVERAGE_POLARIZABILITY>  (1) 
39.08362140286042

>  <JCHEM_BIOAVAILABILITY>  (1) 
1

>  <JCHEM_DONOR_COUNT>  (1) 
2

>  <JCHEM_FORMAL_CHARGE>  (1) 
0

>  <JCHEM_GHOSE_FILTER>  (1) 
1

>  <JCHEM_IUPAC>  (1) 
4-amino-5-chloro-N-[1-(3-methoxypropyl)piperidin-4-yl]-2,3-dihydro-1-benzofuran-7-carboxamide

>  <JCHEM_LOGP>  (1) 
0.7446884966666674

>  <JCHEM_MDDR_LIKE_RULE>  (1) 
1

>  <JCHEM_NUMBER_OF_RINGS>  (1) 
3

>  <JCHEM_PHYSIOLOGICAL_CHARGE>  (1) 
1

>  <JCHEM_PKA>  (1) 
18.506718370136216

>  <JCHEM_PKA_STRONGEST_ACIDIC>  (1) 
14.644509322618454

>  <JCHEM_PKA_STRONGEST_BASIC>  (1) 
8.979797321898948

>  <JCHEM_POLAR_SURFACE_AREA>  (1) 
76.82

>  <JCHEM_REFRACTIVITY>  (1) 
100.67109999999997

>  <JCHEM_ROTATABLE_BOND_COUNT>  (1) 
6

>  <JCHEM_RULE_OF_FIVE>  (1) 
1

>  <JCHEM_TRADITIONAL_IUPAC>  (1) 
prucalopride

>  <JCHEM_VEBER_RULE>  (1) 
0

>  <MOLECULAR_WEIGHT>  (1) 
367.87

>  <PRODUCTS>  (1) 
Resotran

>  <SALTS>  (1) 
Prucalopride hydrochloride

>  <SMILES>  (1) 
COCCCN1CCC(CC1)NC(=O)C1=C2OCCC2=C(N)C(Cl)=C1

$$$$
