
     RDKit          2D

 55 58  0  0  0  0  0  0  0  0999 V2000
   13.4062    6.2759    0.0000 C   0  0  0  0  0  0  0  0  0  0  0  0
   12.6918    5.8634    0.0000 C   0  0  0  0  0  0  0  0  0  0  0  0
   12.6918    5.0384    0.0000 C   0  0  0  0  0  0  0  0  0  0  0  0
   13.4062    4.6259    0.0000 C   0  0  0  0  0  0  0  0  0  0  0  0
   14.1207    5.0384    0.0000 C   0  0  0  0  0  0  0  0  0  0  0  0
   14.1207    5.8634    0.0000 C   0  0  0  0  0  0  0  0  0  0  0  0
   11.9773    4.6259    0.0000 C   0  0  0  0  0  0  0  0  0  0  0  0
   11.2628    5.0384    0.0000 C   0  0  0  0  0  0  0  0  0  0  0  0
   10.5484    4.6259    0.0000 C   0  0  0  0  0  0  0  0  0  0  0  0
   10.5484    3.8009    0.0000 C   0  0  0  0  0  0  0  0  0  0  0  0
   11.2628    3.3884    0.0000 C   0  0  0  0  0  0  0  0  0  0  0  0
   11.9773    3.8009    0.0000 C   0  0  0  0  0  0  0  0  0  0  0  0
   12.6918    3.3884    0.0000 O   0  0  0  0  0  0  0  0  0  0  0  0
   11.2628    2.5634    0.0000 N   0  0  0  0  0  0  0  0  0  0  0  0
   10.5484    2.1509    0.0000 N   0  0  0  0  0  0  0  0  0  0  0  0
   10.5484    1.3259    0.0000 C   0  0  0  0  0  0  0  0  0  0  0  0
    9.8809    0.8409    0.0000 C   0  0  0  0  0  0  0  0  0  0  0  0
   10.1359    0.0563    0.0000 N   0  0  0  0  0  0  0  0  0  0  0  0
   10.9609    0.0563    0.0000 N   0  0  0  0  0  0  0  0  0  0  0  0
   11.2158    0.8409    0.0000 C   0  0  0  0  0  0  0  0  0  0  0  0
    9.1665    1.2534    0.0000 C   0  0  0  0  0  0  0  0  0  0  0  0
   11.9303    1.2534    0.0000 O   0  0  0  0  0  0  0  0  0  0  0  0
   11.3734   -0.6581    0.0000 C   0  0  0  0  0  0  0  0  0  0  0  0
   12.0878   -0.2456    0.0000 C   0  0  0  0  0  0  0  0  0  0  0  0
   11.3734   -1.4831    0.0000 C   0  0  0  0  0  0  0  0  0  0  0  0
   12.0878   -1.8957    0.0000 C   0  0  0  0  0  0  0  0  0  0  0  0
   12.8023   -1.4831    0.0000 C   0  0  0  0  0  0  0  0  0  0  0  0
   12.8023   -0.6581    0.0000 C   0  0  0  0  0  0  0  0  0  0  0  0
   13.3857   -0.0748    0.0000 C   0  0  0  0  0  0  0  0  0  0  0  0
   13.5168   -1.8956    0.0000 C   0  0  0  0  0  0  0  0  0  0  0  0
   14.8352    4.6259    0.0000 C   0  0  0  0  0  0  0  0  0  0  0  0
   15.6321    4.8394    0.0000 O   0  0  0  0  0  0  0  0  0  0  0  0
   15.2477    3.9114    0.0000 O   0  0  0  0  0  0  0  0  0  0  0  0
    0.0000    0.0000    0.0000 H   0  0  0  0  0  0  0  0  0  0  0  0
    0.0000    0.0000    0.0000 H   0  0  0  0  0  0  0  0  0  0  0  0
    0.0000    0.0000    0.0000 H   0  0  0  0  0  0  0  0  0  0  0  0
    0.0000    0.0000    0.0000 H   0  0  0  0  0  0  0  0  0  0  0  0
    0.0000    0.0000    0.0000 H   0  0  0  0  0  0  0  0  0  0  0  0
    0.0000    0.0000    0.0000 H   0  0  0  0  0  0  0  0  0  0  0  0
    0.0000    0.0000    0.0000 H   0  0  0  0  0  0  0  0  0  0  0  0
    0.0000    0.0000    0.0000 H   0  0  0  0  0  0  0  0  0  0  0  0
    0.0000    0.0000    0.0000 H   0  0  0  0  0  0  0  0  0  0  0  0
    0.0000    0.0000    0.0000 H   0  0  0  0  0  0  0  0  0  0  0  0
    0.0000    0.0000    0.0000 H   0  0  0  0  0  0  0  0  0  0  0  0
    0.0000    0.0000    0.0000 H   0  0  0  0  0  0  0  0  0  0  0  0
    0.0000    0.0000    0.0000 H   0  0  0  0  0  0  0  0  0  0  0  0
    0.0000    0.0000    0.0000 H   0  0  0  0  0  0  0  0  0  0  0  0
    0.0000    0.0000    0.0000 H   0  0  0  0  0  0  0  0  0  0  0  0
    0.0000    0.0000    0.0000 H   0  0  0  0  0  0  0  0  0  0  0  0
    0.0000    0.0000    0.0000 H   0  0  0  0  0  0  0  0  0  0  0  0
    0.0000    0.0000    0.0000 H   0  0  0  0  0  0  0  0  0  0  0  0
    0.0000    0.0000    0.0000 H   0  0  0  0  0  0  0  0  0  0  0  0
    0.0000    0.0000    0.0000 H   0  0  0  0  0  0  0  0  0  0  0  0
    0.0000    0.0000    0.0000 H   0  0  0  0  0  0  0  0  0  0  0  0
    0.0000    0.0000    0.0000 H   0  0  0  0  0  0  0  0  0  0  0  0
  1  2  2  0
  2  3  1  0
  3  4  2  0
  4  5  1  0
  5  6  2  0
  1  6  1  0
  3  7  1  0
 12  7  1  0
  8  7  2  0
  8  9  1  0
  9 10  2  0
 10 11  1  0
 11 12  2  0
 12 13  1  0
 11 14  1  0
 14 15  1  0
 15 16  2  0
 16 17  1  0
 16 20  1  0
 17 18  2  0
 18 19  1  0
 19 20  1  0
 17 21  1  0
 20 22  2  0
 19 23  1  0
 24 23  2  0
 23 25  1  0
 25 26  2  0
 26 27  1  0
 27 28  2  0
 24 28  1  0
 28 29  1  0
 27 30  1  0
  5 31  1  0
 31 32  1  0
 31 33  2  0
  1 34  1  0
  2 35  1  0
  4 36  1  0
  6 37  1  0
  8 38  1  0
  9 39  1  0
 10 40  1  0
 13 41  1  0
 14 42  1  0
 21 43  1  0
 21 44  1  0
 21 45  1  0
 24 46  1  0
 25 47  1  0
 26 48  1  0
 29 49  1  0
 29 50  1  0
 29 51  1  0
 30 52  1  0
 30 53  1  0
 30 54  1  0
 32 55  1  0
M  END
>  <ALOGPS_LOGP>  (1) 
4.02

>  <ALOGPS_LOGS>  (1) 
-4.63

>  <ALOGPS_SOLUBILITY>  (1) 
1.03e-02 g/l

>  <DATABASE_ID>  (1) 
DB06210

>  <DATABASE_NAME>  (1) 
drugbank

>  <DRUGBANK_ID>  (1) 
DB06210

>  <DRUG_GROUPS>  (1) 
approved

>  <EXACT_MASS>  (1) 
442.164105212

>  <FORMULA>  (1) 
C25H22N4O4

>  <GENERIC_NAME>  (1) 
Eltrombopag

>  <INCHI_IDENTIFIER>  (1) 
InChI=1S/C25H22N4O4/c1-14-10-11-19(12-15(14)2)29-24(31)22(16(3)28-29)27-26-21-9-5-8-20(23(21)30)17-6-4-7-18(13-17)25(32)33/h4-13,26,30H,1-3H3,(H,32,33)/b27-22-

>  <INCHI_KEY>  (1) 
XDXWLKQMMKQXPV-QYQHSDTDSA-N

>  <JCHEM_ACCEPTOR_COUNT>  (1) 
7

>  <JCHEM_AVERAGE_POLARIZABILITY>  (1) 
47.64422283574644

>  <JCHEM_BIOAVAILABILITY>  (1) 
1

>  <JCHEM_DONOR_COUNT>  (1) 
3

>  <JCHEM_FORMAL_CHARGE>  (1) 
0

>  <JCHEM_GHOSE_FILTER>  (1) 
0

>  <JCHEM_IUPAC>  (1) 
3-(3-{2-[(4Z)-1-(3,4-dimethylphenyl)-3-methyl-5-oxo-4,5-dihydro-1H-pyrazol-4-ylidene]hydrazin-1-yl}-2-hydroxyphenyl)benzoic acid

>  <JCHEM_LOGP>  (1) 
6.026236312666667

>  <JCHEM_MDDR_LIKE_RULE>  (1) 
0

>  <JCHEM_NUMBER_OF_RINGS>  (1) 
4

>  <JCHEM_PHYSIOLOGICAL_CHARGE>  (1) 
-1

>  <JCHEM_PKA>  (1) 
9.106921714654124

>  <JCHEM_PKA_STRONGEST_ACIDIC>  (1) 
3.9870720333059055

>  <JCHEM_PKA_STRONGEST_BASIC>  (1) 
0.16911864589120562

>  <JCHEM_POLAR_SURFACE_AREA>  (1) 
114.59

>  <JCHEM_REFRACTIVITY>  (1) 
126.4827

>  <JCHEM_ROTATABLE_BOND_COUNT>  (1) 
5

>  <JCHEM_RULE_OF_FIVE>  (1) 
0

>  <JCHEM_TRADITIONAL_IUPAC>  (1) 
3-(3-{2-[(4Z)-1-(3,4-dimethylphenyl)-3-methyl-5-oxopyrazol-4-ylidene]hydrazin-1-yl}-2-hydroxyphenyl)benzoic acid

>  <JCHEM_VEBER_RULE>  (1) 
0

>  <MOLECULAR_WEIGHT>  (1) 
442.4666

>  <PRODUCTS>  (1) 
Promacta; Revolade

>  <SALTS>  (1) 
Eltrombopag Olamine

>  <SMILES>  (1) 
CC1=NN(C(=O)\C1=N/NC1=C(O)C(=CC=C1)C1=CC=CC(=C1)C(O)=O)C1=CC=C(C)C(C)=C1

$$$$
