
     RDKit          2D

 67 68  0  0  1  0  0  0  0  0999 V2000
    3.1895    1.6204    0.0000 C   0  0  0  0  0  0  0  0  0  0  0  0
    2.7770    0.9059    0.0000 C   0  0  0  0  0  0  0  0  0  0  0  0
    3.1895    0.1914    0.0000 C   0  0  0  0  0  0  0  0  0  0  0  0
    1.9520    0.9059    0.0000 C   0  0  0  0  0  0  0  0  0  0  0  0
    1.5395    1.6204    0.0000 O   0  0  0  0  0  0  0  0  0  0  0  0
    1.5395    0.1914    0.0000 O   0  0  0  0  0  0  0  0  0  0  0  0
    0.7145    0.1914    0.0000 C   0  0  0  0  0  0  0  0  0  0  0  0
    0.3020   -0.5230    0.0000 C   0  0  0  0  0  0  0  0  0  0  0  0
   -0.5230   -0.5230    0.0000 C   0  0  0  0  0  0  0  0  0  0  0  0
   -0.9355    0.1914    0.0000 C   0  0  0  0  0  0  0  0  0  0  0  0
   -0.5230    0.9059    0.0000 C   0  0  0  0  0  0  0  0  0  0  0  0
    0.3020    0.9059    0.0000 C   0  0  0  0  0  0  0  0  0  0  0  0
   -1.7605    0.1914    0.0000 C   0  0  0  0  0  0  0  0  0  0  0  0
   -2.1730    0.9059    0.0000 O   0  0  0  0  0  0  0  0  0  0  0  0
    0.7145   -1.2375    0.0000 C   0  0  0  0  0  0  0  0  0  0  0  0
    1.5395   -1.2375    0.0000 C   0  0  0  0  0  0  0  0  0  0  0  0
    1.9520   -1.9520    0.0000 C   0  0  0  0  0  0  0  0  0  0  0  0
    2.7770   -1.9520    0.0000 N   0  0  0  0  0  0  0  0  0  0  0  0
    3.1895   -2.6664    0.0000 C   0  0  0  0  0  0  0  0  0  0  0  0
    4.0145   -2.6664    0.0000 C   0  0  0  0  0  0  0  0  0  0  0  0
    2.7770   -3.3809    0.0000 C   0  0  0  0  0  0  0  0  0  0  0  0
    3.1895   -1.2375    0.0000 C   0  0  0  0  0  0  0  0  0  0  0  0
    2.7770   -0.5230    0.0000 C   0  0  0  0  0  0  0  0  0  0  0  0
    4.0145   -1.2375    0.0000 C   0  0  0  0  0  0  0  0  0  0  0  0
    0.3020   -1.9520    0.0000 C   0  0  0  0  0  0  0  0  0  0  0  0
    0.7145   -2.6664    0.0000 C   0  0  0  0  0  0  0  0  0  0  0  0
    0.3020   -3.3809    0.0000 C   0  0  0  0  0  0  0  0  0  0  0  0
   -0.5230   -3.3809    0.0000 C   0  0  0  0  0  0  0  0  0  0  0  0
   -0.9355   -2.6664    0.0000 C   0  0  0  0  0  0  0  0  0  0  0  0
   -0.5230   -1.9520    0.0000 C   0  0  0  0  0  0  0  0  0  0  0  0
    0.0000    0.0000    0.0000 H   0  0  0  0  0  0  0  0  0  0  0  0
    0.0000    0.0000    0.0000 H   0  0  0  0  0  0  0  0  0  0  0  0
    0.0000    0.0000    0.0000 H   0  0  0  0  0  0  0  0  0  0  0  0
    0.0000    0.0000    0.0000 H   0  0  0  0  0  0  0  0  0  0  0  0
    0.0000    0.0000    0.0000 H   0  0  0  0  0  0  0  0  0  0  0  0
    0.0000    0.0000    0.0000 H   0  0  0  0  0  0  0  0  0  0  0  0
    0.0000    0.0000    0.0000 H   0  0  0  0  0  0  0  0  0  0  0  0
    0.0000    0.0000    0.0000 H   0  0  0  0  0  0  0  0  0  0  0  0
    0.0000    0.0000    0.0000 H   0  0  0  0  0  0  0  0  0  0  0  0
    0.0000    0.0000    0.0000 H   0  0  0  0  0  0  0  0  0  0  0  0
    0.0000    0.0000    0.0000 H   0  0  0  0  0  0  0  0  0  0  0  0
    0.0000    0.0000    0.0000 H   0  0  0  0  0  0  0  0  0  0  0  0
    0.0000    0.0000    0.0000 H   0  0  0  0  0  0  0  0  0  0  0  0
    0.0000    0.0000    0.0000 H   0  0  0  0  0  0  0  0  0  0  0  0
    0.0000    0.0000    0.0000 H   0  0  0  0  0  0  0  0  0  0  0  0
    0.0000    0.0000    0.0000 H   0  0  0  0  0  0  0  0  0  0  0  0
    0.0000    0.0000    0.0000 H   0  0  0  0  0  0  0  0  0  0  0  0
    0.0000    0.0000    0.0000 H   0  0  0  0  0  0  0  0  0  0  0  0
    0.0000    0.0000    0.0000 H   0  0  0  0  0  0  0  0  0  0  0  0
    0.0000    0.0000    0.0000 H   0  0  0  0  0  0  0  0  0  0  0  0
    0.0000    0.0000    0.0000 H   0  0  0  0  0  0  0  0  0  0  0  0
    0.0000    0.0000    0.0000 H   0  0  0  0  0  0  0  0  0  0  0  0
    0.0000    0.0000    0.0000 H   0  0  0  0  0  0  0  0  0  0  0  0
    0.0000    0.0000    0.0000 H   0  0  0  0  0  0  0  0  0  0  0  0
    0.0000    0.0000    0.0000 H   0  0  0  0  0  0  0  0  0  0  0  0
    0.0000    0.0000    0.0000 H   0  0  0  0  0  0  0  0  0  0  0  0
    0.0000    0.0000    0.0000 H   0  0  0  0  0  0  0  0  0  0  0  0
    0.0000    0.0000    0.0000 H   0  0  0  0  0  0  0  0  0  0  0  0
    0.0000    0.0000    0.0000 H   0  0  0  0  0  0  0  0  0  0  0  0
    0.0000    0.0000    0.0000 H   0  0  0  0  0  0  0  0  0  0  0  0
    0.0000    0.0000    0.0000 H   0  0  0  0  0  0  0  0  0  0  0  0
    0.0000    0.0000    0.0000 H   0  0  0  0  0  0  0  0  0  0  0  0
    0.0000    0.0000    0.0000 H   0  0  0  0  0  0  0  0  0  0  0  0
    0.0000    0.0000    0.0000 H   0  0  0  0  0  0  0  0  0  0  0  0
    0.0000    0.0000    0.0000 H   0  0  0  0  0  0  0  0  0  0  0  0
    0.0000    0.0000    0.0000 H   0  0  0  0  0  0  0  0  0  0  0  0
    0.0000    0.0000    0.0000 H   0  0  0  0  0  0  0  0  0  0  0  0
  1  2  1  0
  2  3  1  0
  2  4  1  0
  4  5  2  0
  4  6  1  0
  6  7  1  0
  7  8  2  0
  8  9  1  0
  9 10  2  0
 10 11  1  0
 11 12  2  0
  7 12  1  0
 10 13  1  0
 13 14  1  0
 15  8  1  6
 15 16  1  0
 16 17  1  0
 17 18  1  0
 18 19  1  0
 19 20  1  0
 19 21  1  0
 18 22  1  0
 22 23  1  0
 22 24  1  0
 15 25  1  0
 25 26  2  0
 26 27  1  0
 27 28  2  0
 28 29  1  0
 29 30  2  0
 25 30  1  0
  1 31  1  0
  1 32  1  0
  1 33  1  0
  2 34  1  0
  3 35  1  0
  3 36  1  0
  3 37  1  0
  9 38  1  0
 11 39  1  0
 12 40  1  0
 13 41  1  0
 13 42  1  0
 14 43  1  0
 15 44  1  0
 16 45  1  0
 16 46  1  0
 17 47  1  0
 17 48  1  0
 19 49  1  0
 20 50  1  0
 20 51  1  0
 20 52  1  0
 21 53  1  0
 21 54  1  0
 21 55  1  0
 22 56  1  0
 23 57  1  0
 23 58  1  0
 23 59  1  0
 24 60  1  0
 24 61  1  0
 24 62  1  0
 26 63  1  0
 27 64  1  0
 28 65  1  0
 29 66  1  0
 30 67  1  0
M  END
>  <ALOGPS_LOGP>  (1) 
5.45

>  <ALOGPS_LOGS>  (1) 
-5.30

>  <ALOGPS_SOLUBILITY>  (1) 
2.05e-03 g/l

>  <DATABASE_ID>  (1) 
DB06702

>  <DATABASE_NAME>  (1) 
drugbank

>  <DRUGBANK_ID>  (1) 
DB06702

>  <DRUG_GROUPS>  (1) 
approved

>  <EXACT_MASS>  (1) 
411.277344055

>  <FORMULA>  (1) 
C26H37NO3

>  <GENERIC_NAME>  (1) 
Fesoterodine

>  <INCHI_IDENTIFIER>  (1) 
InChI=1S/C26H37NO3/c1-18(2)26(29)30-25-13-12-21(17-28)16-24(25)23(22-10-8-7-9-11-22)14-15-27(19(3)4)20(5)6/h7-13,16,18-20,23,28H,14-15,17H2,1-6H3/t23-/m1/s1

>  <INCHI_KEY>  (1) 
DCCSDBARQIPTGU-HSZRJFAPSA-N

>  <JCHEM_ACCEPTOR_COUNT>  (1) 
3

>  <JCHEM_AVERAGE_POLARIZABILITY>  (1) 
48.2894920536105

>  <JCHEM_BIOAVAILABILITY>  (1) 
0

>  <JCHEM_DONOR_COUNT>  (1) 
1

>  <JCHEM_FORMAL_CHARGE>  (1) 
0

>  <JCHEM_GHOSE_FILTER>  (1) 
0

>  <JCHEM_IUPAC>  (1) 
2-[(1R)-3-[bis(propan-2-yl)amino]-1-phenylpropyl]-4-(hydroxymethyl)phenyl 2-methylpropanoate

>  <JCHEM_LOGP>  (1) 
5.698894813000001

>  <JCHEM_MDDR_LIKE_RULE>  (1) 
0

>  <JCHEM_NUMBER_OF_RINGS>  (1) 
2

>  <JCHEM_PHYSIOLOGICAL_CHARGE>  (1) 
1

>  <JCHEM_PKA_STRONGEST_ACIDIC>  (1) 
14.983366375423817

>  <JCHEM_PKA_STRONGEST_BASIC>  (1) 
10.636868002290807

>  <JCHEM_POLAR_SURFACE_AREA>  (1) 
49.77

>  <JCHEM_REFRACTIVITY>  (1) 
124.08480000000006

>  <JCHEM_ROTATABLE_BOND_COUNT>  (1) 
11

>  <JCHEM_RULE_OF_FIVE>  (1) 
0

>  <JCHEM_TRADITIONAL_IUPAC>  (1) 
fesoterodine

>  <JCHEM_VEBER_RULE>  (1) 
0

>  <MOLECULAR_WEIGHT>  (1) 
411.5769

>  <PRODUCTS>  (1) 
Toviaz

>  <SALTS>  (1) 
Fesoterodine fumarate

>  <SMILES>  (1) 
CC(C)N(CC[C@H](C1=CC=CC=C1)C1=C(OC(=O)C(C)C)C=CC(CO)=C1)C(C)C

>  <SYNONYMS>  (1) 
FESO

$$$$
