
     RDKit          2D

 44 47  0  0  0  0  0  0  0  0999 V2000
    3.5539   -3.0422    0.0000 C   0  0  0  0  0  0  0  0  0  0  0  0
    3.5539   -2.2172    0.0000 N   0  0  0  0  0  0  0  0  0  0  0  0
    4.2684   -1.8047    0.0000 C   0  0  0  0  0  0  0  0  0  0  0  0
    4.2684   -0.9797    0.0000 C   0  0  0  0  0  0  0  0  0  0  0  0
    3.5539   -0.5672    0.0000 C   0  0  0  0  0  0  0  0  0  0  0  0
    3.5539    0.2578    0.0000 C   0  0  0  0  0  0  0  0  0  0  0  0
    4.2972    0.6157    0.0000 C   0  0  0  0  0  0  0  0  0  0  0  0
    4.9020    0.0546    0.0000 C   0  0  0  0  0  0  0  0  0  0  0  0
    5.6903    0.2978    0.0000 C   0  0  0  0  0  0  0  0  0  0  0  0
    5.8739    1.1021    0.0000 C   0  0  0  0  0  0  0  0  0  0  0  0
    5.2691    1.6632    0.0000 C   0  0  0  0  0  0  0  0  0  0  0  0
    4.4808    1.4200    0.0000 C   0  0  0  0  0  0  0  0  0  0  0  0
    3.9664    2.0651    0.0000 C   0  0  0  0  0  0  0  0  0  0  0  0
    3.1414    2.0651    0.0000 C   0  0  0  0  0  0  0  0  0  0  0  0
    2.6270    1.4200    0.0000 N   0  0  0  0  0  0  0  0  0  0  0  0
    2.8106    0.6157    0.0000 C   0  0  0  0  0  0  0  0  0  0  0  0
    2.1024    0.1926    0.0000 N   0  0  0  0  0  0  0  0  0  0  0  0
    1.4811    0.7354    0.0000 C   0  0  0  0  0  0  0  0  0  0  0  0
    1.8054    1.4940    0.0000 C   0  0  0  0  0  0  0  0  0  0  0  0
    1.3822    2.2022    0.0000 C   0  0  0  0  0  0  0  0  0  0  0  0
    1.7840    2.9228    0.0000 O   0  0  0  0  0  0  0  0  0  0  0  0
    2.8394   -0.9797    0.0000 C   0  0  0  0  0  0  0  0  0  0  0  0
    2.8394   -1.8047    0.0000 C   0  0  0  0  0  0  0  0  0  0  0  0
    0.0000    0.0000    0.0000 H   0  0  0  0  0  0  0  0  0  0  0  0
    0.0000    0.0000    0.0000 H   0  0  0  0  0  0  0  0  0  0  0  0
    0.0000    0.0000    0.0000 H   0  0  0  0  0  0  0  0  0  0  0  0
    0.0000    0.0000    0.0000 H   0  0  0  0  0  0  0  0  0  0  0  0
    0.0000    0.0000    0.0000 H   0  0  0  0  0  0  0  0  0  0  0  0
    0.0000    0.0000    0.0000 H   0  0  0  0  0  0  0  0  0  0  0  0
    0.0000    0.0000    0.0000 H   0  0  0  0  0  0  0  0  0  0  0  0
    0.0000    0.0000    0.0000 H   0  0  0  0  0  0  0  0  0  0  0  0
    0.0000    0.0000    0.0000 H   0  0  0  0  0  0  0  0  0  0  0  0
    0.0000    0.0000    0.0000 H   0  0  0  0  0  0  0  0  0  0  0  0
    0.0000    0.0000    0.0000 H   0  0  0  0  0  0  0  0  0  0  0  0
    0.0000    0.0000    0.0000 H   0  0  0  0  0  0  0  0  0  0  0  0
    0.0000    0.0000    0.0000 H   0  0  0  0  0  0  0  0  0  0  0  0
    0.0000    0.0000    0.0000 H   0  0  0  0  0  0  0  0  0  0  0  0
    0.0000    0.0000    0.0000 H   0  0  0  0  0  0  0  0  0  0  0  0
    0.0000    0.0000    0.0000 H   0  0  0  0  0  0  0  0  0  0  0  0
    0.0000    0.0000    0.0000 H   0  0  0  0  0  0  0  0  0  0  0  0
    0.0000    0.0000    0.0000 H   0  0  0  0  0  0  0  0  0  0  0  0
    0.0000    0.0000    0.0000 H   0  0  0  0  0  0  0  0  0  0  0  0
    0.0000    0.0000    0.0000 H   0  0  0  0  0  0  0  0  0  0  0  0
    0.0000    0.0000    0.0000 H   0  0  0  0  0  0  0  0  0  0  0  0
  1  2  1  0
  2  3  1  0
  3  4  1  0
  4  5  1  0
  5  6  2  3
  6  7  1  0
  7  8  2  0
  8  9  1  0
  9 10  2  0
 10 11  1  0
 11 12  2  0
  7 12  1  0
 12 13  1  0
 13 14  1  0
 14 15  1  0
 15 16  1  0
  6 16  1  0
 16 17  2  0
 17 18  1  0
 18 19  2  0
 15 19  1  0
 19 20  1  0
 20 21  2  0
  5 22  1  0
 22 23  1  0
  2 23  1  0
  1 24  1  0
  1 25  1  0
  1 26  1  0
  3 27  1  0
  3 28  1  0
  4 29  1  0
  4 30  1  0
  8 31  1  0
  9 32  1  0
 10 33  1  0
 11 34  1  0
 13 35  1  0
 13 36  1  0
 14 37  1  0
 14 38  1  0
 18 39  1  0
 20 40  1  0
 22 41  1  0
 22 42  1  0
 23 43  1  0
 23 44  1  0
M  END
>  <ALOGPS_LOGP>  (1) 
2.09

>  <ALOGPS_LOGS>  (1) 
-2.97

>  <ALOGPS_SOLUBILITY>  (1) 
3.33e-01 g/l

>  <DATABASE_ID>  (1) 
DB06766

>  <DATABASE_NAME>  (1) 
drugbank

>  <DRUGBANK_ID>  (1) 
DB06766

>  <DRUG_GROUPS>  (1) 
approved

>  <EXACT_MASS>  (1) 
307.168462309

>  <FORMULA>  (1) 
C19H21N3O

>  <GENERIC_NAME>  (1) 
Alcaftadine

>  <INCHI_IDENTIFIER>  (1) 
InChI=1S/C19H21N3O/c1-21-9-6-15(7-10-21)18-17-5-3-2-4-14(17)8-11-22-16(13-23)12-20-19(18)22/h2-5,12-13H,6-11H2,1H3

>  <INCHI_KEY>  (1) 
MWTBKTRZPHJQLH-UHFFFAOYSA-N

>  <JCHEM_ACCEPTOR_COUNT>  (1) 
3

>  <JCHEM_AVERAGE_POLARIZABILITY>  (1) 
34.68058927944821

>  <JCHEM_BIOAVAILABILITY>  (1) 
1

>  <JCHEM_DONOR_COUNT>  (1) 
0

>  <JCHEM_FORMAL_CHARGE>  (1) 
0

>  <JCHEM_GHOSE_FILTER>  (1) 
1

>  <JCHEM_IUPAC>  (1) 
2-(1-methylpiperidin-4-ylidene)-4,7-diazatricyclo[8.4.0.0³,⁷]tetradeca-1(14),3,5,10,12-pentaene-6-carbaldehyde

>  <JCHEM_LOGP>  (1) 
2.1713893323333333

>  <JCHEM_MDDR_LIKE_RULE>  (1) 
0

>  <JCHEM_NUMBER_OF_RINGS>  (1) 
4

>  <JCHEM_PHYSIOLOGICAL_CHARGE>  (1) 
1

>  <JCHEM_PKA_STRONGEST_BASIC>  (1) 
7.162953769226122

>  <JCHEM_POLAR_SURFACE_AREA>  (1) 
38.13

>  <JCHEM_REFRACTIVITY>  (1) 
102.87719999999999

>  <JCHEM_ROTATABLE_BOND_COUNT>  (1) 
1

>  <JCHEM_RULE_OF_FIVE>  (1) 
1

>  <JCHEM_TRADITIONAL_IUPAC>  (1) 
alcaftadine

>  <JCHEM_VEBER_RULE>  (1) 
1

>  <MOLECULAR_WEIGHT>  (1) 
307.3895

>  <PRODUCTS>  (1) 
Lastacaft

>  <SMILES>  (1) 
CN1CCC(CC1)=C1C2=NC=C(C=O)N2CCC2=CC=CC=C12

>  <SYNONYMS>  (1) 
Vilasta

$$$$
