
     RDKit          2D

 34 35  0  0  0  0  0  0  0  0999 V2000
   -0.3479    0.4093    0.0000 C   0  0  0  0  0  0  0  0  0  0  0  0
   -1.0643    0.8187    0.0000 C   0  0  0  0  0  0  0  0  0  0  0  0
   -0.3479   -0.4093    0.0000 C   0  0  0  0  0  0  0  0  0  0  0  0
    0.3683    0.8187    0.0000 S   0  0  0  0  0  0  0  0  0  0  0  0
   -1.7602    0.4093    0.0000 C   0  0  0  0  0  0  0  0  0  0  0  0
   -1.0643    1.6374    0.0000 C   0  0  0  0  0  0  0  0  0  0  0  0
    0.3683   -0.8187    0.0000 C   0  0  0  0  0  0  0  0  0  0  0  0
   -1.0643   -0.8187    0.0000 C   0  0  0  0  0  0  0  0  0  0  0  0
    1.0643    0.4093    0.0000 C   0  0  0  0  0  0  0  0  0  0  0  0
    0.3683    1.6374    0.0000 O   0  0  0  0  0  0  0  0  0  0  0  0
   -2.4766    0.8187    0.0000 C   0  0  0  0  0  0  0  0  0  0  0  0
   -1.7602    2.0467    0.0000 C   0  0  0  0  0  0  0  0  0  0  0  0
    0.3683   -1.6374    0.0000 C   0  0  0  0  0  0  0  0  0  0  0  0
   -1.0643   -1.6374    0.0000 C   0  0  0  0  0  0  0  0  0  0  0  0
    1.7807    0.8187    0.0000 C   0  0  0  0  0  0  0  0  0  0  0  0
   -2.4766    1.6374    0.0000 C   0  0  0  0  0  0  0  0  0  0  0  0
   -0.3479   -2.0467    0.0000 C   0  0  0  0  0  0  0  0  0  0  0  0
    2.4766    0.4093    0.0000 N   0  0  0  0  0  0  0  0  0  0  0  0
    1.7807    1.6374    0.0000 O   0  0  0  0  0  0  0  0  0  0  0  0
    0.0000    0.0000    0.0000 H   0  0  0  0  0  0  0  0  0  0  0  0
    0.0000    0.0000    0.0000 H   0  0  0  0  0  0  0  0  0  0  0  0
    0.0000    0.0000    0.0000 H   0  0  0  0  0  0  0  0  0  0  0  0
    0.0000    0.0000    0.0000 H   0  0  0  0  0  0  0  0  0  0  0  0
    0.0000    0.0000    0.0000 H   0  0  0  0  0  0  0  0  0  0  0  0
    0.0000    0.0000    0.0000 H   0  0  0  0  0  0  0  0  0  0  0  0
    0.0000    0.0000    0.0000 H   0  0  0  0  0  0  0  0  0  0  0  0
    0.0000    0.0000    0.0000 H   0  0  0  0  0  0  0  0  0  0  0  0
    0.0000    0.0000    0.0000 H   0  0  0  0  0  0  0  0  0  0  0  0
    0.0000    0.0000    0.0000 H   0  0  0  0  0  0  0  0  0  0  0  0
    0.0000    0.0000    0.0000 H   0  0  0  0  0  0  0  0  0  0  0  0
    0.0000    0.0000    0.0000 H   0  0  0  0  0  0  0  0  0  0  0  0
    0.0000    0.0000    0.0000 H   0  0  0  0  0  0  0  0  0  0  0  0
    0.0000    0.0000    0.0000 H   0  0  0  0  0  0  0  0  0  0  0  0
    0.0000    0.0000    0.0000 H   0  0  0  0  0  0  0  0  0  0  0  0
  2  1  1  0
  3  1  1  0
  4  1  1  6
  5  2  2  0
  6  2  1  0
  7  3  2  0
  8  3  1  0
  4  9  1  0
 10  4  2  0
 11  5  1  0
 12  6  2  0
 13  7  1  0
 14  8  2  0
 15  9  1  0
 16 11  2  0
 16 12  1  0
 17 13  2  0
 17 14  1  0
 18 15  1  0
 19 15  2  0
  1 20  1  0
  5 21  1  0
  6 22  1  0
  7 23  1  0
  8 24  1  0
  9 25  1  0
  9 26  1  0
 11 27  1  0
 12 28  1  0
 13 29  1  0
 14 30  1  0
 16 31  1  0
 17 32  1  0
 18 33  1  0
 18 34  1  0
M  END
>  <ALOGPS_LOGP>  (1) 
1.75

>  <ALOGPS_LOGS>  (1) 
-2.64

>  <ALOGPS_SOLUBILITY>  (1) 
6.22e-01 g/l

>  <DATABASE_ID>  (1) 
DB06413

>  <DATABASE_NAME>  (1) 
drugbank

>  <DRUGBANK_ID>  (1) 
DB06413

>  <DRUG_GROUPS>  (1) 
approved; investigational

>  <EXACT_MASS>  (1) 
273.082349901

>  <FORMULA>  (1) 
C15H15NO2S

>  <GENERIC_NAME>  (1) 
Armodafinil

>  <INCHI_IDENTIFIER>  (1) 
InChI=1S/C15H15NO2S/c16-14(17)11-19(18)15(12-7-3-1-4-8-12)13-9-5-2-6-10-13/h1-10,15H,11H2,(H2,16,17)/t19-/m1/s1

>  <INCHI_KEY>  (1) 
YFGHCGITMMYXAQ-LJQANCHMSA-N

>  <INTERNATIONAL_BRANDS>  (1) 
Neoresotyl

>  <JCHEM_ACCEPTOR_COUNT>  (1) 
2

>  <JCHEM_ATOM_COUNT>  (1) 
34

>  <JCHEM_AVERAGE_POLARIZABILITY>  (1) 
28.204390269511084

>  <JCHEM_BIOAVAILABILITY>  (1) 
1

>  <JCHEM_DONOR_COUNT>  (1) 
1

>  <JCHEM_FORMAL_CHARGE>  (1) 
0

>  <JCHEM_GHOSE_FILTER>  (1) 
1

>  <JCHEM_IUPAC>  (1) 
2-[(R)-diphenylmethanesulfinyl]acetamide

>  <JCHEM_LOGP>  (1) 
1.5328344403333334

>  <JCHEM_MDDR_LIKE_RULE>  (1) 
0

>  <JCHEM_NUMBER_OF_RINGS>  (1) 
2

>  <JCHEM_PHYSIOLOGICAL_CHARGE>  (1) 
0

>  <JCHEM_PKA>  (1) 
19.252638598305513

>  <JCHEM_PKA_STRONGEST_ACIDIC>  (1) 
8.839766037804056

>  <JCHEM_PKA_STRONGEST_BASIC>  (1) 
-4.362637432497153

>  <JCHEM_POLAR_SURFACE_AREA>  (1) 
60.160000000000004

>  <JCHEM_REFRACTIVITY>  (1) 
77.3886

>  <JCHEM_ROTATABLE_BOND_COUNT>  (1) 
5

>  <JCHEM_RULE_OF_FIVE>  (1) 
1

>  <JCHEM_TRADITIONAL_IUPAC>  (1) 
modafinil

>  <JCHEM_VEBER_RULE>  (1) 
0

>  <MOLECULAR_WEIGHT>  (1) 
273.35

>  <PRODUCTS>  (1) 
Armodafinil; Nuvigil

>  <SMILES>  (1) 
NC(=O)C[S@@](=O)C(C1=CC=CC=C1)C1=CC=CC=C1

>  <SYNONYMS>  (1) 
(â€“)-2-[(R)-(diphenylmethyl)sulfinyl]acetamide

$$$$
