
     RDKit          2D

 22 24  0  0  0  0  0  0  0  0999 V2000
    0.1163   -2.0322    0.0000 C   0  0  0  0  0  0  0  0  0  0  0  0
    0.8517   -0.9111    0.0000 C   0  0  0  0  0  0  0  0  0  0  0  0
    1.5873   -2.0322    0.0000 C   0  0  0  0  0  0  0  0  0  0  0  0
    0.5657   -0.4945    0.0000 C   0  0  0  0  0  0  0  0  0  0  0  0
    1.3012   -1.6156    0.0000 C   0  0  0  0  0  0  0  0  0  0  0  0
    2.0368   -0.4945    0.0000 C   0  0  0  0  0  0  0  0  0  0  0  0
    0.8517   -1.6585    0.0000 N   0  0  0  0  0  0  0  0  0  0  0  0
    0.5657   -1.2419    0.0000 N   0  0  0  0  0  0  0  0  0  0  0  0
    1.3012   -0.1208    0.0000 N   0  0  0  0  0  0  0  0  0  0  0  0
    2.0368   -1.2419    0.0000 N   0  0  0  0  0  0  0  0  0  0  0  0
    0.0000    0.0000    0.0000 H   0  0  0  0  0  0  0  0  0  0  0  0
    0.0000    0.0000    0.0000 H   0  0  0  0  0  0  0  0  0  0  0  0
    0.0000    0.0000    0.0000 H   0  0  0  0  0  0  0  0  0  0  0  0
    0.0000    0.0000    0.0000 H   0  0  0  0  0  0  0  0  0  0  0  0
    0.0000    0.0000    0.0000 H   0  0  0  0  0  0  0  0  0  0  0  0
    0.0000    0.0000    0.0000 H   0  0  0  0  0  0  0  0  0  0  0  0
    0.0000    0.0000    0.0000 H   0  0  0  0  0  0  0  0  0  0  0  0
    0.0000    0.0000    0.0000 H   0  0  0  0  0  0  0  0  0  0  0  0
    0.0000    0.0000    0.0000 H   0  0  0  0  0  0  0  0  0  0  0  0
    0.0000    0.0000    0.0000 H   0  0  0  0  0  0  0  0  0  0  0  0
    0.0000    0.0000    0.0000 H   0  0  0  0  0  0  0  0  0  0  0  0
    0.0000    0.0000    0.0000 H   0  0  0  0  0  0  0  0  0  0  0  0
  7  1  1  0
 10  5  1  0
  7  3  1  0
  8  1  1  0
 10  3  1  0
  8  5  1  0
  9  2  1  0
  9  4  1  0
  9  6  1  0
  8  4  1  0
  7  2  1  0
 10  6  1  0
  1 11  1  0
  1 12  1  0
  2 13  1  0
  2 14  1  0
  3 15  1  0
  3 16  1  0
  4 17  1  0
  4 18  1  0
  5 19  1  0
  5 20  1  0
  6 21  1  0
  6 22  1  0
M  END
>  <ALOGPS_LOGP>  (1) 
-1.39

>  <ALOGPS_LOGS>  (1) 
0.74

>  <ALOGPS_SOLUBILITY>  (1) 
7.66e+02 g/l

>  <DATABASE_ID>  (1) 
DB06799

>  <DATABASE_NAME>  (1) 
drugbank

>  <DRUGBANK_ID>  (1) 
DB06799

>  <DRUG_GROUPS>  (1) 
approved; vet_approved

>  <EXACT_MASS>  (1) 
140.106196404

>  <FORMULA>  (1) 
C6H12N4

>  <GENERIC_NAME>  (1) 
Methenamine

>  <INCHI_IDENTIFIER>  (1) 
InChI=1S/C6H12N4/c1-7-2-9-4-8(1)5-10(3-7)6-9/h1-6H2

>  <INCHI_KEY>  (1) 
VKYKSIONXSXAKP-UHFFFAOYSA-N

>  <JCHEM_ACCEPTOR_COUNT>  (1) 
4

>  <JCHEM_AVERAGE_POLARIZABILITY>  (1) 
14.2528813066141

>  <JCHEM_BIOAVAILABILITY>  (1) 
1

>  <JCHEM_DONOR_COUNT>  (1) 
0

>  <JCHEM_FORMAL_CHARGE>  (1) 
0

>  <JCHEM_GHOSE_FILTER>  (1) 
0

>  <JCHEM_IUPAC>  (1) 
1,3,5,7-tetraazatricyclo[3.3.1.1³,⁷]decane

>  <JCHEM_LOGP>  (1) 
0.39213385666666695

>  <JCHEM_MDDR_LIKE_RULE>  (1) 
0

>  <JCHEM_NUMBER_OF_RINGS>  (1) 
3

>  <JCHEM_PHYSIOLOGICAL_CHARGE>  (1) 
0

>  <JCHEM_PKA_STRONGEST_BASIC>  (1) 
5.87696536708769

>  <JCHEM_POLAR_SURFACE_AREA>  (1) 
12.96

>  <JCHEM_REFRACTIVITY>  (1) 
36.995400000000004

>  <JCHEM_ROTATABLE_BOND_COUNT>  (1) 
0

>  <JCHEM_RULE_OF_FIVE>  (1) 
1

>  <JCHEM_TRADITIONAL_IUPAC>  (1) 
formin

>  <JCHEM_VEBER_RULE>  (1) 
1

>  <MOLECULAR_WEIGHT>  (1) 
140.1863

>  <PRODUCTS>  (1) 
Azo Urinary Tract Defense Antibacterial Protection; Azuphen Mb; CVS Antibacterial Plus Urinary Pain Relief; Cystex Plus; Hip Rex Tab 1gm; Hiprex; Hyolev Mb; Hyophen; Indiomin Mb; Mandelamine; Me NaPhos MB Hyo 1; Methenamine Hippurate; Methenamine Mandelate; Methenamine and Sodium Salicylate; Phosphasal; Premier Value Antibacterial Plus Urinary Pain Relief; Quality Choice Antibacterial Plus Urinary Pain Relief; Saprolex Tab; UR N-C Urinary Antiseptic; Uralgic; Uramit Mb; Urasal Granules; Urelle; Uribel; Urimar-T; Urin D/S; Uro-458; Uro-L; Uro-MP; UroAv-81; UroAv-B; Urogesic Blue; Urolet Mb; Urophen Mb; Ustell; Uta; Utira-C; Vilamit MB; Vilevev MB

>  <SALTS>  (1) 
Methenamine citrate; Methenamine diphosphate; Methenamine hippurate; Methenamine hydrochloride; Methenamine mandelate; Methenamine phosphate; Methenamine sulfate

>  <SECONDARY_ACCESSION_NUMBERS>  (1) 
DB06146

>  <SMILES>  (1) 
C1N2CN3CN1CN(C2)C3

>  <SYNONYMS>  (1) 
1,3,5,7-tetraazatricyclo[3.3.1.13,7]decane; Hexamethylenamine; Hexamethylene tetramine; Hexamethylenetetramine; Hexamethylentetramin; Hexamethylentetraminum; Hexamine; Hexaminum; HMT; HMTA; metenamina; méthénamine; methenaminum

$$$$
