216235
     RDKit          2D

 44 47  0  0  0  0  0  0  0  0999 V2000
    3.4449   -2.3243    0.0000 Cl  0  0  0  0  0  0  0  0  0  0  0  0
    4.1711    0.1898    0.0000 S   0  0  0  0  0  0  0  0  0  0  0  0
    5.0101    2.1528    0.0000 S   0  0  0  0  0  0  0  0  0  0  0  0
    8.7349   -0.0663    0.0000 O   0  0  0  0  0  0  0  0  0  0  0  0
    8.7349   -1.3942    0.0000 O   0  0  0  0  0  0  0  0  0  0  0  0
    6.5253    1.3322    0.0000 O   0  0  0  0  0  0  0  0  0  0  0  0
    3.3641    0.3613    0.0000 O   0  0  0  0  0  0  0  0  0  0  0  0
    4.9781    0.0182    0.0000 O   0  0  0  0  0  0  0  0  0  0  0  0
    2.5475   -0.3873    0.0000 O   0  0  0  0  0  0  0  0  0  0  0  0
    3.9996   -0.6173    0.0000 N   0  0  0  0  0  0  0  0  0  0  0  0
    1.8801   -0.8722    0.0000 N   0  0  0  0  0  0  0  0  0  0  0  0
    6.5253   -0.3178    0.0000 C   0  0  0  0  0  0  0  0  0  0  0  0
    5.8108    0.0947    0.0000 C   0  0  0  0  0  0  0  0  0  0  0  0
    6.5253   -1.1428    0.0000 C   0  0  0  0  0  0  0  0  0  0  0  0
    4.3426    0.9967    0.0000 C   0  0  0  0  0  0  0  0  0  0  0  0
    5.0963    1.3322    0.0000 C   0  0  0  0  0  0  0  0  0  0  0  0
    7.2398    0.0947    0.0000 C   0  0  0  0  0  0  0  0  0  0  0  0
    5.8108    0.9197    0.0000 C   0  0  0  0  0  0  0  0  0  0  0  0
    7.9542   -0.3178    0.0000 C   0  0  0  0  0  0  0  0  0  0  0  0
    7.9542   -1.1428    0.0000 C   0  0  0  0  0  0  0  0  0  0  0  0
    7.2398   -1.5553    0.0000 C   0  0  0  0  0  0  0  0  0  0  0  0
    5.8108   -1.5553    0.0000 C   0  0  0  0  0  0  0  0  0  0  0  0
    3.7906    1.6098    0.0000 C   0  0  0  0  0  0  0  0  0  0  0  0
    9.2164   -0.7303    0.0000 C   0  0  0  0  0  0  0  0  0  0  0  0
    4.2031    2.3243    0.0000 C   0  0  0  0  0  0  0  0  0  0  0  0
    3.2149   -0.8722    0.0000 C   0  0  0  0  0  0  0  0  0  0  0  0
    2.9600   -1.6569    0.0000 C   0  0  0  0  0  0  0  0  0  0  0  0
    2.1350   -1.6569    0.0000 C   0  0  0  0  0  0  0  0  0  0  0  0
    1.6500   -2.3243    0.0000 C   0  0  0  0  0  0  0  0  0  0  0  0
    0.0000    0.0000    0.0000 H   0  0  0  0  0  0  0  0  0  0  0  0
    0.0000    0.0000    0.0000 H   0  0  0  0  0  0  0  0  0  0  0  0
    0.0000    0.0000    0.0000 H   0  0  0  0  0  0  0  0  0  0  0  0
    0.0000    0.0000    0.0000 H   0  0  0  0  0  0  0  0  0  0  0  0
    0.0000    0.0000    0.0000 H   0  0  0  0  0  0  0  0  0  0  0  0
    0.0000    0.0000    0.0000 H   0  0  0  0  0  0  0  0  0  0  0  0
    0.0000    0.0000    0.0000 H   0  0  0  0  0  0  0  0  0  0  0  0
    0.0000    0.0000    0.0000 H   0  0  0  0  0  0  0  0  0  0  0  0
    0.0000    0.0000    0.0000 H   0  0  0  0  0  0  0  0  0  0  0  0
    0.0000    0.0000    0.0000 H   0  0  0  0  0  0  0  0  0  0  0  0
    0.0000    0.0000    0.0000 H   0  0  0  0  0  0  0  0  0  0  0  0
    0.0000    0.0000    0.0000 H   0  0  0  0  0  0  0  0  0  0  0  0
    0.0000    0.0000    0.0000 H   0  0  0  0  0  0  0  0  0  0  0  0
    0.0000    0.0000    0.0000 H   0  0  0  0  0  0  0  0  0  0  0  0
    0.0000    0.0000    0.0000 H   0  0  0  0  0  0  0  0  0  0  0  0
  1 27  1  0
  2  7  2  0
  2  8  2  0
  2 10  1  0
  2 15  1  0
  3 16  1  0
  3 25  1  0
  4 19  1  0
  4 24  1  0
  5 20  1  0
  5 24  1  0
  6 18  2  0
  9 11  1  0
  9 26  1  0
 10 26  1  0
 11 28  2  0
 12 13  1  0
 12 14  2  0
 12 17  1  0
 13 18  1  0
 14 21  1  0
 14 22  1  0
 15 16  2  0
 15 23  1  0
 16 18  1  0
 17 19  2  0
 19 20  1  0
 20 21  2  0
 23 25  2  0
 26 27  2  0
 27 28  1  0
 28 29  1  0
 10 30  1  0
 13 31  1  0
 13 32  1  0
 17 33  1  0
 21 34  1  0
 22 35  1  0
 22 36  1  0
 22 37  1  0
 23 38  1  0
 24 39  1  0
 24 40  1  0
 25 41  1  0
 29 42  1  0
 29 43  1  0
 29 44  1  0
M  END
>  <ALOGPS_LOGP>  (1) 
3.35

>  <ALOGPS_LOGS>  (1) 
-4.40

>  <ALOGPS_SOLUBILITY>  (1) 
1.81e-02 g/l

>  <DATABASE_ID>  (1) 
DB06268

>  <DATABASE_NAME>  (1) 
drugbank

>  <DRUGBANK_ID>  (1) 
DB06268

>  <DRUG_GROUPS>  (1) 
approved; investigational; withdrawn

>  <EXACT_MASS>  (1) 
454.006005309

>  <FORMULA>  (1) 
C18H15ClN2O6S2

>  <GENERIC_NAME>  (1) 
Sitaxentan

>  <INCHI_IDENTIFIER>  (1) 
InChI=1S/C18H15ClN2O6S2/c1-9-5-13-14(26-8-25-13)7-11(9)6-12(22)17-15(3-4-28-17)29(23,24)21-18-16(19)10(2)20-27-18/h3-5,7,21H,6,8H2,1-2H3

>  <INCHI_KEY>  (1) 
PHWXUGHIIBDVKD-UHFFFAOYSA-N

>  <JCHEM_ACCEPTOR_COUNT>  (1) 
6

>  <JCHEM_AVERAGE_POLARIZABILITY>  (1) 
43.11652205319554

>  <JCHEM_BIOAVAILABILITY>  (1) 
1

>  <JCHEM_DONOR_COUNT>  (1) 
1

>  <JCHEM_FORMAL_CHARGE>  (1) 
0

>  <JCHEM_GHOSE_FILTER>  (1) 
1

>  <JCHEM_IUPAC>  (1) 
N-(4-chloro-3-methyl-1,2-oxazol-5-yl)-2-[2-(6-methyl-2H-1,3-benzodioxol-5-yl)acetyl]thiophene-3-sulfonamide

>  <JCHEM_LOGP>  (1) 
3.091685922

>  <JCHEM_MDDR_LIKE_RULE>  (1) 
0

>  <JCHEM_NUMBER_OF_RINGS>  (1) 
4

>  <JCHEM_PHYSIOLOGICAL_CHARGE>  (1) 
-1

>  <JCHEM_PKA>  (1) 
11.420143849604173

>  <JCHEM_PKA_STRONGEST_ACIDIC>  (1) 
6.8883305321764725

>  <JCHEM_PKA_STRONGEST_BASIC>  (1) 
0.7450561162550599

>  <JCHEM_POLAR_SURFACE_AREA>  (1) 
107.73

>  <JCHEM_REFRACTIVITY>  (1) 
105.80450000000003

>  <JCHEM_ROTATABLE_BOND_COUNT>  (1) 
5

>  <JCHEM_RULE_OF_FIVE>  (1) 
1

>  <JCHEM_TRADITIONAL_IUPAC>  (1) 
thelin

>  <JCHEM_VEBER_RULE>  (1) 
0

>  <MOLECULAR_WEIGHT>  (1) 
454.905

>  <PRODUCTS>  (1) 
Thelin

>  <SALTS>  (1) 
Sitaxentan sodium

>  <SMILES>  (1) 
CC1=NOC(NS(=O)(=O)C2=C(SC=C2)C(=O)CC2=CC3=C(OCO3)C=C2C)=C1Cl

$$$$
