
     RDKit          2D

 67 71  0  0  1  0  0  0  0  0999 V2000
   -0.4190   -3.1043    0.0000 C   0  0  0  0  0  0  0  0  0  0  0  0
    0.1127   -2.4736    0.0000 C   0  0  0  0  0  0  0  0  0  0  0  0
   -0.1675   -1.6977    0.0000 O   0  0  0  0  0  0  0  0  0  0  0  0
    0.9248   -2.6188    0.0000 C   0  0  0  0  0  0  0  0  0  0  0  0
    0.6955   -3.4113    0.0000 C   0  0  0  0  0  0  0  0  0  0  0  0
    1.3783   -3.8743    0.0000 C   0  0  0  0  0  0  0  0  0  0  0  0
    2.0297   -3.3680    0.0000 C   0  0  0  0  0  0  0  0  0  0  0  0
    1.7494   -2.5920    0.0000 C   0  0  0  0  0  0  0  0  0  0  0  0
    2.2812   -1.9613    0.0000 C   0  0  0  0  0  0  0  0  0  0  0  0
    3.0933   -2.1065    0.0000 C   0  0  0  0  0  0  0  0  0  0  0  0
    3.3736   -2.8825    0.0000 C   0  0  0  0  0  0  0  0  0  0  0  0
    4.1857   -3.0277    0.0000 C   0  0  0  0  0  0  0  0  0  0  0  0
    4.7175   -2.3970    0.0000 C   0  0  0  0  0  0  0  0  0  0  0  0
    5.5297   -2.5422    0.0000 C   0  0  0  0  0  0  0  0  0  0  0  0
    5.8100   -3.3181    0.0000 C   0  0  0  0  0  0  0  0  0  0  0  0
    6.6221   -3.4633    0.0000 O   0  0  0  0  0  0  0  0  0  0  0  0
    5.2781   -3.9488    0.0000 C   0  0  0  0  0  0  0  0  0  0  0  0
    4.4660   -3.8036    0.0000 C   0  0  0  0  0  0  0  0  0  0  0  0
    3.9342   -4.4343    0.0000 C   0  0  0  0  0  0  0  0  0  0  0  0
    3.1221   -4.2891    0.0000 C   0  0  0  0  0  0  0  0  0  0  0  0
    2.8418   -3.5132    0.0000 C   0  0  0  0  0  0  0  0  0  0  0  0
    3.6251   -1.4758    0.0000 C   0  0  0  0  0  0  0  0  0  0  0  0
    3.3448   -0.6999    0.0000 C   0  0  0  0  0  0  0  0  0  0  0  0
    3.8766   -0.0692    0.0000 C   0  0  0  0  0  0  0  0  0  0  0  0
    4.6888   -0.2144    0.0000 C   0  0  0  0  0  0  0  0  0  0  0  0
    4.9691   -0.9903    0.0000 C   0  0  0  0  0  0  0  0  0  0  0  0
    4.4372   -1.6210    0.0000 C   0  0  0  0  0  0  0  0  0  0  0  0
    5.2206    0.4162    0.0000 N   0  0  0  0  0  0  0  0  0  0  0  0
    4.9403    1.1921    0.0000 C   0  0  0  0  0  0  0  0  0  0  0  0
    6.0327    0.2710    0.0000 C   0  0  0  0  0  0  0  0  0  0  0  0
    1.3895   -1.8497    0.0000 C   0  0  0  0  0  0  0  0  0  0  0  0
    0.9843   -1.7960    0.0000 O   0  0  0  0  0  0  0  0  0  0  0  0
    0.0000    0.0000    0.0000 H   0  0  0  0  0  0  0  0  0  0  0  0
    0.0000    0.0000    0.0000 H   0  0  0  0  0  0  0  0  0  0  0  0
    0.0000    0.0000    0.0000 H   0  0  0  0  0  0  0  0  0  0  0  0
    0.0000    0.0000    0.0000 H   0  0  0  0  0  0  0  0  0  0  0  0
    0.0000    0.0000    0.0000 H   0  0  0  0  0  0  0  0  0  0  0  0
    0.0000    0.0000    0.0000 H   0  0  0  0  0  0  0  0  0  0  0  0
    0.0000    0.0000    0.0000 H   0  0  0  0  0  0  0  0  0  0  0  0
    0.0000    0.0000    0.0000 H   0  0  0  0  0  0  0  0  0  0  0  0
    0.0000    0.0000    0.0000 H   0  0  0  0  0  0  0  0  0  0  0  0
    0.0000    0.0000    0.0000 H   0  0  0  0  0  0  0  0  0  0  0  0
    0.0000    0.0000    0.0000 H   0  0  0  0  0  0  0  0  0  0  0  0
    0.0000    0.0000    0.0000 H   0  0  0  0  0  0  0  0  0  0  0  0
    0.0000    0.0000    0.0000 H   0  0  0  0  0  0  0  0  0  0  0  0
    0.0000    0.0000    0.0000 H   0  0  0  0  0  0  0  0  0  0  0  0
    0.0000    0.0000    0.0000 H   0  0  0  0  0  0  0  0  0  0  0  0
    0.0000    0.0000    0.0000 H   0  0  0  0  0  0  0  0  0  0  0  0
    0.0000    0.0000    0.0000 H   0  0  0  0  0  0  0  0  0  0  0  0
    0.0000    0.0000    0.0000 H   0  0  0  0  0  0  0  0  0  0  0  0
    0.0000    0.0000    0.0000 H   0  0  0  0  0  0  0  0  0  0  0  0
    0.0000    0.0000    0.0000 H   0  0  0  0  0  0  0  0  0  0  0  0
    0.0000    0.0000    0.0000 H   0  0  0  0  0  0  0  0  0  0  0  0
    0.0000    0.0000    0.0000 H   0  0  0  0  0  0  0  0  0  0  0  0
    0.0000    0.0000    0.0000 H   0  0  0  0  0  0  0  0  0  0  0  0
    0.0000    0.0000    0.0000 H   0  0  0  0  0  0  0  0  0  0  0  0
    0.0000    0.0000    0.0000 H   0  0  0  0  0  0  0  0  0  0  0  0
    0.0000    0.0000    0.0000 H   0  0  0  0  0  0  0  0  0  0  0  0
    0.0000    0.0000    0.0000 H   0  0  0  0  0  0  0  0  0  0  0  0
    0.0000    0.0000    0.0000 H   0  0  0  0  0  0  0  0  0  0  0  0
    0.0000    0.0000    0.0000 H   0  0  0  0  0  0  0  0  0  0  0  0
    0.0000    0.0000    0.0000 H   0  0  0  0  0  0  0  0  0  0  0  0
    0.0000    0.0000    0.0000 H   0  0  0  0  0  0  0  0  0  0  0  0
    0.0000    0.0000    0.0000 H   0  0  0  0  0  0  0  0  0  0  0  0
    0.0000    0.0000    0.0000 H   0  0  0  0  0  0  0  0  0  0  0  0
    0.0000    0.0000    0.0000 H   0  0  0  0  0  0  0  0  0  0  0  0
    0.0000    0.0000    0.0000 H   0  0  0  0  0  0  0  0  0  0  0  0
  1  2  1  0
  2  3  2  0
  4  2  1  6
  4  5  1  0
  5  6  1  0
  7  6  1  0
  7  8  1  0
  4  8  1  0
  8  9  1  0
  9 10  1  0
 10 11  1  0
 11 12  2  0
 12 13  1  0
 13 14  1  0
 14 15  1  0
 15 16  2  0
 15 17  1  0
 17 18  2  0
 12 18  1  0
 18 19  1  0
 19 20  1  0
 21 20  1  0
  7 21  1  0
 11 21  1  0
 10 22  1  6
 22 23  2  0
 23 24  1  0
 24 25  2  0
 25 26  1  0
 26 27  2  0
 22 27  1  0
 25 28  1  0
 28 29  1  0
 28 30  1  0
  8 31  1  6
  4 32  1  0
  1 33  1  0
  1 34  1  0
  1 35  1  0
  5 36  1  0
  5 37  1  0
  6 38  1  0
  6 39  1  0
  7 40  1  1
  9 41  1  0
  9 42  1  0
 10 43  1  0
 13 44  1  0
 13 45  1  0
 14 46  1  0
 14 47  1  0
 17 48  1  0
 19 49  1  0
 19 50  1  0
 20 51  1  0
 20 52  1  0
 21 53  1  6
 23 54  1  0
 24 55  1  0
 26 56  1  0
 27 57  1  0
 29 58  1  0
 29 59  1  0
 29 60  1  0
 30 61  1  0
 30 62  1  0
 30 63  1  0
 31 64  1  0
 31 65  1  0
 31 66  1  0
 32 67  1  0
M  END
>  <ALOGPS_LOGP>  (1) 
4.45

>  <ALOGPS_LOGS>  (1) 
-4.66

>  <ALOGPS_SOLUBILITY>  (1) 
9.43e-03 g/l

>  <DATABASE_ID>  (1) 
DB08867

>  <DATABASE_NAME>  (1) 
drugbank

>  <DRUGBANK_ID>  (1) 
DB08867

>  <DRUG_GROUPS>  (1) 
approved

>  <EXACT_MASS>  (1) 
433.261693991

>  <FORMULA>  (1) 
C28H35NO3

>  <GENERIC_NAME>  (1) 
Ulipristal

>  <INCHI_IDENTIFIER>  (1) 
InChI=1S/C28H35NO3/c1-17(30)28(32)14-13-25-23-11-7-19-15-21(31)10-12-22(19)26(23)24(16-27(25,28)2)18-5-8-20(9-6-18)29(3)4/h5-6,8-9,15,23-25,32H,7,10-14,16H2,1-4H3/t23-,24+,25-,27-,28-/m0/s1

>  <INCHI_KEY>  (1) 
HKDLNTKNLJPAIY-WKWWZUSTSA-N

>  <INTERNATIONAL_BRANDS>  (1) 
EllaOne; Esmya 

>  <JCHEM_ACCEPTOR_COUNT>  (1) 
4

>  <JCHEM_ATOM_COUNT>  (1) 
67

>  <JCHEM_AVERAGE_POLARIZABILITY>  (1) 
49.66339489248065

>  <JCHEM_BIOAVAILABILITY>  (1) 
1

>  <JCHEM_DONOR_COUNT>  (1) 
1

>  <JCHEM_FORMAL_CHARGE>  (1) 
0

>  <JCHEM_GHOSE_FILTER>  (1) 
1

>  <JCHEM_IUPAC>  (1) 
(10S,11S,14R,15S,17R)-14-acetyl-17-[4-(dimethylamino)phenyl]-14-hydroxy-15-methyltetracyclo[8.7.0.0^{2,7}.0^{11,15}]heptadeca-1,6-dien-5-one

>  <JCHEM_LOGP>  (1) 
4.180761779333334

>  <JCHEM_MDDR_LIKE_RULE>  (1) 
0

>  <JCHEM_NUMBER_OF_RINGS>  (1) 
5

>  <JCHEM_PHYSIOLOGICAL_CHARGE>  (1) 
0

>  <JCHEM_PKA>  (1) 
17.596370741148238

>  <JCHEM_PKA_STRONGEST_ACIDIC>  (1) 
12.69753535208616

>  <JCHEM_PKA_STRONGEST_BASIC>  (1) 
4.889632544525982

>  <JCHEM_POLAR_SURFACE_AREA>  (1) 
57.61

>  <JCHEM_REFRACTIVITY>  (1) 
129.2858

>  <JCHEM_ROTATABLE_BOND_COUNT>  (1) 
3

>  <JCHEM_RULE_OF_FIVE>  (1) 
1

>  <JCHEM_TRADITIONAL_IUPAC>  (1) 
(10S,11S,14R,15S,17R)-14-acetyl-17-[4-(dimethylamino)phenyl]-14-hydroxy-15-methyltetracyclo[8.7.0.0^{2,7}.0^{11,15}]heptadeca-1,6-dien-5-one

>  <JCHEM_VEBER_RULE>  (1) 
0

>  <MOLECULAR_WEIGHT>  (1) 
433.592

>  <PRODUCTS>  (1) 
Ella; Ellaone; Esmya; Fibristal

>  <SALTS>  (1) 
Ulipristal Acetate

>  <SECONDARY_ACCESSION_NUMBERS>  (1) 
DB05366

>  <SMILES>  (1) 
CN(C)C1=CC=C(C=C1)[C@H]1C[C@@]2(C)[C@@H](CC[C@]2(O)C(C)=O)[C@@H]2CCC3=CC(=O)CCC3=C12

$$$$
