 
     RDKit          2D

109112  0  0  1  0  0  0  0  0999 V2000
    6.6881  -10.5220    0.0000 C   0  0  0  0  0  0  0  0  0  0  0  0
    7.4025  -10.1094    0.0000 C   0  0  0  0  0  0  0  0  0  0  0  0
    8.1171  -10.5220    0.0000 N   0  0  0  0  0  0  0  0  0  0  0  0
    8.8315  -10.1094    0.0000 C   0  0  0  0  0  0  0  0  0  0  0  0
    9.5460  -10.5220    0.0000 C   0  0  0  0  0  0  0  0  0  0  0  0
   10.2605  -10.1094    0.0000 N   0  0  0  0  0  0  0  0  0  0  0  0
   10.9750  -10.5220    0.0000 C   0  0  0  0  0  0  0  0  0  0  0  0
   11.6895  -10.1094    0.0000 C   0  0  0  0  0  0  0  0  0  0  0  0
   12.4040  -10.5220    0.0000 N   0  0  0  0  0  0  0  0  0  0  0  0
   13.1185  -10.1094    0.0000 C   0  0  0  0  0  0  0  0  0  0  0  0
   13.8330  -10.5220    0.0000 C   0  0  0  0  0  0  0  0  0  0  0  0
   14.5474  -10.1094    0.0000 N   0  0  0  0  0  0  0  0  0  0  0  0
   15.2619  -10.5220    0.0000 C   0  0  0  0  0  0  0  0  0  0  0  0
   15.9765  -10.1094    0.0000 C   0  0  0  0  0  0  0  0  0  0  0  0
    5.9736  -10.1094    0.0000 N   0  0  0  0  0  0  0  0  0  0  0  0
   16.6390  -10.5165    0.0000 C   0  0  0  0  0  0  0  0  0  0  0  0
    5.9736   -9.2846    0.0000 C   0  0  0  0  0  0  0  0  0  0  0  0
    5.2592   -8.8721    0.0000 C   0  0  0  0  0  0  0  0  0  0  0  0
    4.5446   -9.2845    0.0000 O   0  0  0  0  0  0  0  0  0  0  0  0
    4.5446  -10.1094    0.0000 C   0  0  0  0  0  0  0  0  0  0  0  0
    5.2592  -10.5220    0.0000 C   0  0  0  0  0  0  0  0  0  0  0  0
   15.9466   -9.2846    0.0000 O   0  0  0  0  0  0  0  0  0  0  0  0
   13.8330  -11.3469    0.0000 O   0  0  0  0  0  0  0  0  0  0  0  0
   11.6895   -9.2845    0.0000 O   0  0  0  0  0  0  0  0  0  0  0  0
    9.5460  -11.3469    0.0000 O   0  0  0  0  0  0  0  0  0  0  0  0
    7.4025   -9.2846    0.0000 O   0  0  0  0  0  0  0  0  0  0  0  0
   13.1185   -9.2844    0.0000 C   0  0  0  0  0  0  0  0  0  0  0  0
    8.8315   -9.2844    0.0000 C   0  0  0  0  0  0  0  0  0  0  0  0
   15.2619  -11.3470    0.0000 C   0  0  0  0  0  0  0  0  0  0  0  0
   10.9750  -11.3470    0.0000 C   0  0  0  0  0  0  0  0  0  0  0  0
   17.3549  -10.1289    0.0000 O   0  0  0  0  0  0  0  0  0  0  0  0
   17.3535  -10.9291    0.0000 C   0  0  0  0  0  0  0  0  0  0  0  0
   13.8365   -8.8699    0.0000 C   0  0  0  0  0  0  0  0  0  0  0  0
    9.5472   -8.8712    0.0000 C   0  0  0  0  0  0  0  0  0  0  0  0
    9.5472   -8.0462    0.0000 C   0  0  0  0  0  0  0  0  0  0  0  0
   10.2517   -7.6393    0.0000 C   0  0  0  0  0  0  0  0  0  0  0  0
   10.2516   -6.8143    0.0000 C   0  0  0  0  0  0  0  0  0  0  0  0
    9.5371   -6.4019    0.0000 C   0  0  0  0  0  0  0  0  0  0  0  0
    8.8326   -6.8087    0.0000 C   0  0  0  0  0  0  0  0  0  0  0  0
    8.8327   -7.6337    0.0000 C   0  0  0  0  0  0  0  0  0  0  0  0
   14.5428   -9.2777    0.0000 C   0  0  0  0  0  0  0  0  0  0  0  0
   15.2573   -8.8653    0.0000 C   0  0  0  0  0  0  0  0  0  0  0  0
   15.2574   -8.0403    0.0000 C   0  0  0  0  0  0  0  0  0  0  0  0
   14.5511   -7.6324    0.0000 C   0  0  0  0  0  0  0  0  0  0  0  0
   13.8366   -8.0448    0.0000 C   0  0  0  0  0  0  0  0  0  0  0  0
   11.6895  -11.7595    0.0000 C   0  0  0  0  0  0  0  0  0  0  0  0
   12.3964  -11.3513    0.0000 C   0  0  0  0  0  0  0  0  0  0  0  0
   11.6895  -12.5844    0.0000 C   0  0  0  0  0  0  0  0  0  0  0  0
   15.9764  -11.7595    0.0000 C   0  0  0  0  0  0  0  0  0  0  0  0
   16.6857  -11.3499    0.0000 C   0  0  0  0  0  0  0  0  0  0  0  0
   15.9765  -12.5845    0.0000 C   0  0  0  0  0  0  0  0  0  0  0  0
   16.6390   -9.6915    0.0000 C   0  0  0  0  0  0  0  0  0  0  0  0
    0.0000    0.0000    0.0000 H   0  0  0  0  0  0  0  0  0  0  0  0
    0.0000    0.0000    0.0000 H   0  0  0  0  0  0  0  0  0  0  0  0
    0.0000    0.0000    0.0000 H   0  0  0  0  0  0  0  0  0  0  0  0
    0.0000    0.0000    0.0000 H   0  0  0  0  0  0  0  0  0  0  0  0
    0.0000    0.0000    0.0000 H   0  0  0  0  0  0  0  0  0  0  0  0
    0.0000    0.0000    0.0000 H   0  0  0  0  0  0  0  0  0  0  0  0
    0.0000    0.0000    0.0000 H   0  0  0  0  0  0  0  0  0  0  0  0
    0.0000    0.0000    0.0000 H   0  0  0  0  0  0  0  0  0  0  0  0
    0.0000    0.0000    0.0000 H   0  0  0  0  0  0  0  0  0  0  0  0
    0.0000    0.0000    0.0000 H   0  0  0  0  0  0  0  0  0  0  0  0
    0.0000    0.0000    0.0000 H   0  0  0  0  0  0  0  0  0  0  0  0
    0.0000    0.0000    0.0000 H   0  0  0  0  0  0  0  0  0  0  0  0
    0.0000    0.0000    0.0000 H   0  0  0  0  0  0  0  0  0  0  0  0
    0.0000    0.0000    0.0000 H   0  0  0  0  0  0  0  0  0  0  0  0
    0.0000    0.0000    0.0000 H   0  0  0  0  0  0  0  0  0  0  0  0
    0.0000    0.0000    0.0000 H   0  0  0  0  0  0  0  0  0  0  0  0
    0.0000    0.0000    0.0000 H   0  0  0  0  0  0  0  0  0  0  0  0
    0.0000    0.0000    0.0000 H   0  0  0  0  0  0  0  0  0  0  0  0
    0.0000    0.0000    0.0000 H   0  0  0  0  0  0  0  0  0  0  0  0
    0.0000    0.0000    0.0000 H   0  0  0  0  0  0  0  0  0  0  0  0
    0.0000    0.0000    0.0000 H   0  0  0  0  0  0  0  0  0  0  0  0
    0.0000    0.0000    0.0000 H   0  0  0  0  0  0  0  0  0  0  0  0
    0.0000    0.0000    0.0000 H   0  0  0  0  0  0  0  0  0  0  0  0
    0.0000    0.0000    0.0000 H   0  0  0  0  0  0  0  0  0  0  0  0
    0.0000    0.0000    0.0000 H   0  0  0  0  0  0  0  0  0  0  0  0
    0.0000    0.0000    0.0000 H   0  0  0  0  0  0  0  0  0  0  0  0
    0.0000    0.0000    0.0000 H   0  0  0  0  0  0  0  0  0  0  0  0
    0.0000    0.0000    0.0000 H   0  0  0  0  0  0  0  0  0  0  0  0
    0.0000    0.0000    0.0000 H   0  0  0  0  0  0  0  0  0  0  0  0
    0.0000    0.0000    0.0000 H   0  0  0  0  0  0  0  0  0  0  0  0
    0.0000    0.0000    0.0000 H   0  0  0  0  0  0  0  0  0  0  0  0
    0.0000    0.0000    0.0000 H   0  0  0  0  0  0  0  0  0  0  0  0
    0.0000    0.0000    0.0000 H   0  0  0  0  0  0  0  0  0  0  0  0
    0.0000    0.0000    0.0000 H   0  0  0  0  0  0  0  0  0  0  0  0
    0.0000    0.0000    0.0000 H   0  0  0  0  0  0  0  0  0  0  0  0
    0.0000    0.0000    0.0000 H   0  0  0  0  0  0  0  0  0  0  0  0
    0.0000    0.0000    0.0000 H   0  0  0  0  0  0  0  0  0  0  0  0
    0.0000    0.0000    0.0000 H   0  0  0  0  0  0  0  0  0  0  0  0
    0.0000    0.0000    0.0000 H   0  0  0  0  0  0  0  0  0  0  0  0
    0.0000    0.0000    0.0000 H   0  0  0  0  0  0  0  0  0  0  0  0
    0.0000    0.0000    0.0000 H   0  0  0  0  0  0  0  0  0  0  0  0
    0.0000    0.0000    0.0000 H   0  0  0  0  0  0  0  0  0  0  0  0
    0.0000    0.0000    0.0000 H   0  0  0  0  0  0  0  0  0  0  0  0
    0.0000    0.0000    0.0000 H   0  0  0  0  0  0  0  0  0  0  0  0
    0.0000    0.0000    0.0000 H   0  0  0  0  0  0  0  0  0  0  0  0
    0.0000    0.0000    0.0000 H   0  0  0  0  0  0  0  0  0  0  0  0
    0.0000    0.0000    0.0000 H   0  0  0  0  0  0  0  0  0  0  0  0
    0.0000    0.0000    0.0000 H   0  0  0  0  0  0  0  0  0  0  0  0
    0.0000    0.0000    0.0000 H   0  0  0  0  0  0  0  0  0  0  0  0
    0.0000    0.0000    0.0000 H   0  0  0  0  0  0  0  0  0  0  0  0
    0.0000    0.0000    0.0000 H   0  0  0  0  0  0  0  0  0  0  0  0
    0.0000    0.0000    0.0000 H   0  0  0  0  0  0  0  0  0  0  0  0
    0.0000    0.0000    0.0000 H   0  0  0  0  0  0  0  0  0  0  0  0
    0.0000    0.0000    0.0000 H   0  0  0  0  0  0  0  0  0  0  0  0
    0.0000    0.0000    0.0000 H   0  0  0  0  0  0  0  0  0  0  0  0
    0.0000    0.0000    0.0000 H   0  0  0  0  0  0  0  0  0  0  0  0
    0.0000    0.0000    0.0000 H   0  0  0  0  0  0  0  0  0  0  0  0
  1  2  1  0
  2  3  1  0
  4  3  1  1
  4  5  1  0
  5  6  1  0
  7  6  1  6
  7  8  1  0
  8  9  1  0
 10  9  1  1
 10 11  1  0
 11 12  1  0
 13 12  1  6
 13 14  1  0
  1 15  1  0
 16 14  1  6
 15 17  1  0
 17 18  1  0
 18 19  1  0
 19 20  1  0
 20 21  1  0
 15 21  1  0
 14 22  2  0
 11 23  2  0
  8 24  2  0
  5 25  2  0
  2 26  2  0
 10 27  1  0
  4 28  1  0
 13 29  1  0
  7 30  1  0
 16 31  1  0
 16 32  1  0
 31 32  1  0
 27 33  1  0
 28 34  1  0
 34 35  1  0
 35 36  2  0
 36 37  1  0
 37 38  2  0
 38 39  1  0
 39 40  2  0
 35 40  1  0
 33 41  2  0
 41 42  1  0
 42 43  2  0
 43 44  1  0
 44 45  2  0
 33 45  1  0
 30 46  1  0
 46 47  1  0
 46 48  1  0
 29 49  1  0
 49 50  1  0
 49 51  1  0
 16 52  1  0
  1 53  1  0
  1 54  1  0
  3 55  1  0
  4 56  1  0
  6 57  1  0
  7 58  1  0
  9 59  1  0
 10 60  1  0
 12 61  1  0
 13 62  1  0
 17 63  1  0
 17 64  1  0
 18 65  1  0
 18 66  1  0
 20 67  1  0
 20 68  1  0
 21 69  1  0
 21 70  1  0
 27 71  1  0
 27 72  1  0
 28 73  1  0
 28 74  1  0
 29 75  1  0
 29 76  1  0
 30 77  1  0
 30 78  1  0
 32 79  1  0
 32 80  1  0
 34 81  1  0
 34 82  1  0
 36 83  1  0
 37 84  1  0
 38 85  1  0
 39 86  1  0
 40 87  1  0
 41 88  1  0
 42 89  1  0
 43 90  1  0
 44 91  1  0
 45 92  1  0
 46 93  1  0
 47 94  1  0
 47 95  1  0
 47 96  1  0
 48 97  1  0
 48 98  1  0
 48 99  1  0
 49100  1  0
 50101  1  0
 50102  1  0
 50103  1  0
 51104  1  0
 51105  1  0
 51106  1  0
 52107  1  0
 52108  1  0
 52109  1  0
M  END
>  <ALOGPS_LOGP>  (1) 
3.21

>  <ALOGPS_LOGS>  (1) 
-5.17

>  <ALOGPS_SOLUBILITY>  (1) 
4.84e-03 g/l

>  <DATABASE_ID>  (1) 
DB08889

>  <DATABASE_NAME>  (1) 
drugbank

>  <DRUGBANK_ID>  (1) 
DB08889

>  <DRUG_GROUPS>  (1) 
approved

>  <EXACT_MASS>  (1) 
719.425799203

>  <FORMULA>  (1) 
C40H57N5O7

>  <GENERIC_NAME>  (1) 
Carfilzomib

>  <INCHI_IDENTIFIER>  (1) 
InChI=1S/C40H57N5O7/c1-27(2)22-32(36(47)40(5)26-52-40)42-39(50)34(24-30-14-10-7-11-15-30)44-38(49)33(23-28(3)4)43-37(48)31(17-16-29-12-8-6-9-13-29)41-35(46)25-45-18-20-51-21-19-45/h6-15,27-28,31-34H,16-26H2,1-5H3,(H,41,46)(H,42,50)(H,43,48)(H,44,49)/t31-,32-,33-,34-,40+/m0/s1

>  <INCHI_KEY>  (1) 
BLMPQMFVWMYDKT-NZTKNTHTSA-N

>  <JCHEM_ACCEPTOR_COUNT>  (1) 
8

>  <JCHEM_AVERAGE_POLARIZABILITY>  (1) 
79.44138772134451

>  <JCHEM_BIOAVAILABILITY>  (1) 
0

>  <JCHEM_DONOR_COUNT>  (1) 
4

>  <JCHEM_FORMAL_CHARGE>  (1) 
0

>  <JCHEM_GHOSE_FILTER>  (1) 
0

>  <JCHEM_IUPAC>  (1) 
(2S)-4-methyl-N-[(1S)-1-{[(2S)-4-methyl-1-[(2R)-2-methyloxiran-2-yl]-1-oxopentan-2-yl]carbamoyl}-2-phenylethyl]-2-[(2S)-2-[2-(morpholin-4-yl)acetamido]-4-phenylbutanamido]pentanamide

>  <JCHEM_LOGP>  (1) 
4.197719256666664

>  <JCHEM_MDDR_LIKE_RULE>  (1) 
1

>  <JCHEM_NUMBER_OF_RINGS>  (1) 
4

>  <JCHEM_PHYSIOLOGICAL_CHARGE>  (1) 
0

>  <JCHEM_PKA>  (1) 
12.396696916667963

>  <JCHEM_PKA_STRONGEST_ACIDIC>  (1) 
11.913230144325482

>  <JCHEM_PKA_STRONGEST_BASIC>  (1) 
4.959066248050013

>  <JCHEM_POLAR_SURFACE_AREA>  (1) 
158.46999999999997

>  <JCHEM_REFRACTIVITY>  (1) 
198.01709999999994

>  <JCHEM_ROTATABLE_BOND_COUNT>  (1) 
20

>  <JCHEM_RULE_OF_FIVE>  (1) 
0

>  <JCHEM_TRADITIONAL_IUPAC>  (1) 
carfilzomib

>  <JCHEM_VEBER_RULE>  (1) 
0

>  <MOLECULAR_WEIGHT>  (1) 
719.9099

>  <PRODUCTS>  (1) 
Kyprolis

>  <SMILES>  (1) 
CC(C)C[C@H](NC(=O)[C@H](CCC1=CC=CC=C1)NC(=O)CN1CCOCC1)C(=O)N[C@@H](CC1=CC=CC=C1)C(=O)N[C@@H](CC(C)C)C(=O)[C@@]1(C)CO1

$$$$
