3781
     RDKit          2D

 39 41  0  0  1  0  0  0  0  0999 V2000
    3.6959   -1.9666    0.0000 S   0  0  0  0  0  0  0  0  0  0  0  0
    3.6959   -0.3823    0.0000 N   0  0  0  0  0  0  0  0  0  0  0  0
    4.3820    1.5979    0.0000 N   0  0  0  0  0  0  0  0  0  0  0  0
    5.0900   -0.3549    0.0000 N   0  0  0  0  0  0  0  0  0  0  0  0
    4.3820    0.8058    0.0000 C   0  0  0  0  0  0  0  0  0  0  0  0
    3.6959    0.4097    0.0000 C   0  0  0  0  0  0  0  0  0  0  0  0
    3.0100   -0.7784    0.0000 C   0  0  0  0  0  0  0  0  0  0  0  0
    5.0680    0.4097    0.0000 C   0  0  0  0  0  0  0  0  0  0  0  0
    4.3820   -0.7784    0.0000 C   0  0  0  0  0  0  0  0  0  0  0  0
    3.0100   -1.5705    0.0000 C   0  0  0  0  0  0  0  0  0  0  0  0
    4.3820   -1.5705    0.0000 C   0  0  0  0  0  0  0  0  0  0  0  0
    5.0680    1.9939    0.0000 C   0  0  0  0  0  0  0  0  0  0  0  0
    3.6959    1.9939    0.0000 C   0  0  0  0  0  0  0  0  0  0  0  0
    2.3019   -0.3549    0.0000 C   0  0  0  0  0  0  0  0  0  0  0  0
    2.3019   -1.9939    0.0000 C   0  0  0  0  0  0  0  0  0  0  0  0
    5.0900   -1.9939    0.0000 C   0  0  0  0  0  0  0  0  0  0  0  0
    1.5842   -0.7619    0.0000 C   0  0  0  0  0  0  0  0  0  0  0  0
    1.5842   -1.5870    0.0000 C   0  0  0  0  0  0  0  0  0  0  0  0
    5.8078   -0.7619    0.0000 C   0  0  0  0  0  0  0  0  0  0  0  0
    5.8078   -1.5870    0.0000 C   0  0  0  0  0  0  0  0  0  0  0  0
    0.0000    0.0000    0.0000 H   0  0  0  0  0  0  0  0  0  0  0  0
    0.0000    0.0000    0.0000 H   0  0  0  0  0  0  0  0  0  0  0  0
    0.0000    0.0000    0.0000 H   0  0  0  0  0  0  0  0  0  0  0  0
    0.0000    0.0000    0.0000 H   0  0  0  0  0  0  0  0  0  0  0  0
    0.0000    0.0000    0.0000 H   0  0  0  0  0  0  0  0  0  0  0  0
    0.0000    0.0000    0.0000 H   0  0  0  0  0  0  0  0  0  0  0  0
    0.0000    0.0000    0.0000 H   0  0  0  0  0  0  0  0  0  0  0  0
    0.0000    0.0000    0.0000 H   0  0  0  0  0  0  0  0  0  0  0  0
    0.0000    0.0000    0.0000 H   0  0  0  0  0  0  0  0  0  0  0  0
    0.0000    0.0000    0.0000 H   0  0  0  0  0  0  0  0  0  0  0  0
    0.0000    0.0000    0.0000 H   0  0  0  0  0  0  0  0  0  0  0  0
    0.0000    0.0000    0.0000 H   0  0  0  0  0  0  0  0  0  0  0  0
    0.0000    0.0000    0.0000 H   0  0  0  0  0  0  0  0  0  0  0  0
    0.0000    0.0000    0.0000 H   0  0  0  0  0  0  0  0  0  0  0  0
    0.0000    0.0000    0.0000 H   0  0  0  0  0  0  0  0  0  0  0  0
    0.0000    0.0000    0.0000 H   0  0  0  0  0  0  0  0  0  0  0  0
    0.0000    0.0000    0.0000 H   0  0  0  0  0  0  0  0  0  0  0  0
    0.0000    0.0000    0.0000 H   0  0  0  0  0  0  0  0  0  0  0  0
    0.0000    0.0000    0.0000 H   0  0  0  0  0  0  0  0  0  0  0  0
  1 10  1  0
  1 11  1  0
  2  6  1  0
  2  7  1  0
  2  9  1  0
  3  5  1  0
  3 12  1  0
  3 13  1  0
  4  9  1  0
  4 19  2  0
  5  6  1  0
  5  8  1  0
  7 10  2  0
  7 14  1  0
  9 11  2  0
 10 15  1  0
 11 16  1  0
 14 17  2  0
 15 18  2  0
 16 20  2  0
 17 18  1  0
 19 20  1  0
  5 21  1  0
  6 22  1  0
  6 23  1  0
  8 24  1  0
  8 25  1  0
  8 26  1  0
 12 27  1  0
 12 28  1  0
 12 29  1  0
 13 30  1  0
 13 31  1  0
 13 32  1  0
 14 33  1  0
 15 34  1  0
 16 35  1  0
 17 36  1  0
 18 37  1  0
 19 38  1  0
 20 39  1  0
M  END
>  <ALOGPS_LOGP>  (1) 
3.45

>  <ALOGPS_LOGS>  (1) 
-3.31

>  <ALOGPS_SOLUBILITY>  (1) 
1.40e-01 g/l

>  <DATABASE_ID>  (1) 
DB08802

>  <DATABASE_NAME>  (1) 
drugbank

>  <DRUGBANK_ID>  (1) 
DB08802

>  <DRUG_GROUPS>  (1) 
approved

>  <EXACT_MASS>  (1) 
285.129968313

>  <FORMULA>  (1) 
C16H19N3S

>  <GENERIC_NAME>  (1) 
Isothipendyl

>  <INCHI_IDENTIFIER>  (1) 
InChI=1S/C16H19N3S/c1-12(18(2)3)11-19-13-7-4-5-8-14(13)20-15-9-6-10-17-16(15)19/h4-10,12H,11H2,1-3H3

>  <INCHI_KEY>  (1) 
OQJBSDFFQWMKBQ-UHFFFAOYSA-N

>  <INTERNATIONAL_BRANDS>  (1) 
Actapront; Alergis Jalea; Andantol; Apaisyl; Calmogel; Nilergex

>  <JCHEM_ACCEPTOR_COUNT>  (1) 
3

>  <JCHEM_AVERAGE_POLARIZABILITY>  (1) 
31.90460941792215

>  <JCHEM_BIOAVAILABILITY>  (1) 
1

>  <JCHEM_DONOR_COUNT>  (1) 
0

>  <JCHEM_FORMAL_CHARGE>  (1) 
0

>  <JCHEM_GHOSE_FILTER>  (1) 
1

>  <JCHEM_IUPAC>  (1) 
dimethyl(1-{9-thia-2,4-diazatricyclo[8.4.0.0³,⁸]tetradeca-1(14),3(8),4,6,10,12-hexaen-2-yl}propan-2-yl)amine

>  <JCHEM_LOGP>  (1) 
3.664355954666666

>  <JCHEM_MDDR_LIKE_RULE>  (1) 
0

>  <JCHEM_NUMBER_OF_RINGS>  (1) 
3

>  <JCHEM_PHYSIOLOGICAL_CHARGE>  (1) 
1

>  <JCHEM_PKA_STRONGEST_BASIC>  (1) 
8.911522333566891

>  <JCHEM_POLAR_SURFACE_AREA>  (1) 
19.37

>  <JCHEM_REFRACTIVITY>  (1) 
86.66150000000002

>  <JCHEM_ROTATABLE_BOND_COUNT>  (1) 
3

>  <JCHEM_RULE_OF_FIVE>  (1) 
1

>  <JCHEM_TRADITIONAL_IUPAC>  (1) 
isothipendyl

>  <JCHEM_VEBER_RULE>  (1) 
1

>  <MOLECULAR_WEIGHT>  (1) 
285.407

>  <SALTS>  (1) 
Isothipendyl hydrochloride

>  <SMILES>  (1) 
CC(CN1C2=CC=CC=C2SC2=C1N=CC=C2)N(C)C

$$$$
