 
     RDKit          2D

 55 58  0  0  0  0  0  0  0  0999 V2000
   15.8813  -20.1712    0.0000 C   0  0  0  0  0  0  0  0  0  0  0  0
   15.8813  -20.9962    0.0000 C   0  0  0  0  0  0  0  0  0  0  0  0
   16.5957  -21.4087    0.0000 C   0  0  0  0  0  0  0  0  0  0  0  0
   17.3102  -20.9962    0.0000 C   0  0  0  0  0  0  0  0  0  0  0  0
   17.3102  -20.1712    0.0000 C   0  0  0  0  0  0  0  0  0  0  0  0
   16.5957  -19.7587    0.0000 C   0  0  0  0  0  0  0  0  0  0  0  0
   16.5957  -18.9339    0.0000 F   0  0  0  0  0  0  0  0  0  0  0  0
   15.1668  -21.4087    0.0000 F   0  0  0  0  0  0  0  0  0  0  0  0
   15.1668  -19.7587    0.0000 S   0  0  0  0  0  0  0  0  0  0  0  0
   14.4623  -20.1656    0.0000 N   0  0  0  0  0  0  0  0  0  0  0  0
   13.7626  -19.7616    0.0000 C   0  0  0  0  0  0  0  0  0  0  0  0
   13.7625  -18.9339    0.0000 C   0  0  0  0  0  0  0  0  0  0  0  0
   13.0480  -18.5214    0.0000 C   0  0  0  0  0  0  0  0  0  0  0  0
   12.3336  -18.9340    0.0000 C   0  0  0  0  0  0  0  0  0  0  0  0
   12.3336  -19.7618    0.0000 C   0  0  0  0  0  0  0  0  0  0  0  0
   13.0481  -20.1742    0.0000 C   0  0  0  0  0  0  0  0  0  0  0  0
   13.0482  -20.9961    0.0000 F   0  0  0  0  0  0  0  0  0  0  0  0
   11.6206  -20.1735    0.0000 C   0  0  0  0  0  0  0  0  0  0  0  0
   10.9556  -19.6996    0.0000 N   0  0  0  0  0  0  0  0  0  0  0  0
   10.3017  -20.1862    0.0000 C   0  0  0  0  0  0  0  0  0  0  0  0
   10.5624  -20.9584    0.0000 S   0  0  0  0  0  0  0  0  0  0  0  0
   11.3774  -20.9491    0.0000 C   0  0  0  0  0  0  0  0  0  0  0  0
   11.8751  -21.6187    0.0000 C   0  0  0  0  0  0  0  0  0  0  0  0
   11.4507  -22.3195    0.0000 C   0  0  0  0  0  0  0  0  0  0  0  0
   11.8489  -23.0421    0.0000 C   0  0  0  0  0  0  0  0  0  0  0  0
   12.6737  -23.0585    0.0000 N   0  0  0  0  0  0  0  0  0  0  0  0
   13.0976  -22.3570    0.0000 C   0  0  0  0  0  0  0  0  0  0  0  0
   12.6995  -21.6344    0.0000 N   0  0  0  0  0  0  0  0  0  0  0  0
    9.5200  -19.9420    0.0000 C   0  0  0  0  0  0  0  0  0  0  0  0
    8.9269  -20.4880    0.0000 C   0  0  0  0  0  0  0  0  0  0  0  0
    9.3358  -19.1216    0.0000 C   0  0  0  0  0  0  0  0  0  0  0  0
    8.7231  -19.7284    0.0000 C   0  0  0  0  0  0  0  0  0  0  0  0
   13.9423  -22.3738    0.0000 N   0  0  0  0  0  0  0  0  0  0  0  0
   14.5835  -19.1754    0.0000 O   0  0  0  0  0  0  0  0  0  0  0  0
   15.7501  -19.1754    0.0000 O   0  0  0  0  0  0  0  0  0  0  0  0
    0.0000    0.0000    0.0000 H   0  0  0  0  0  0  0  0  0  0  0  0
    0.0000    0.0000    0.0000 H   0  0  0  0  0  0  0  0  0  0  0  0
    0.0000    0.0000    0.0000 H   0  0  0  0  0  0  0  0  0  0  0  0
    0.0000    0.0000    0.0000 H   0  0  0  0  0  0  0  0  0  0  0  0
    0.0000    0.0000    0.0000 H   0  0  0  0  0  0  0  0  0  0  0  0
    0.0000    0.0000    0.0000 H   0  0  0  0  0  0  0  0  0  0  0  0
    0.0000    0.0000    0.0000 H   0  0  0  0  0  0  0  0  0  0  0  0
    0.0000    0.0000    0.0000 H   0  0  0  0  0  0  0  0  0  0  0  0
    0.0000    0.0000    0.0000 H   0  0  0  0  0  0  0  0  0  0  0  0
    0.0000    0.0000    0.0000 H   0  0  0  0  0  0  0  0  0  0  0  0
    0.0000    0.0000    0.0000 H   0  0  0  0  0  0  0  0  0  0  0  0
    0.0000    0.0000    0.0000 H   0  0  0  0  0  0  0  0  0  0  0  0
    0.0000    0.0000    0.0000 H   0  0  0  0  0  0  0  0  0  0  0  0
    0.0000    0.0000    0.0000 H   0  0  0  0  0  0  0  0  0  0  0  0
    0.0000    0.0000    0.0000 H   0  0  0  0  0  0  0  0  0  0  0  0
    0.0000    0.0000    0.0000 H   0  0  0  0  0  0  0  0  0  0  0  0
    0.0000    0.0000    0.0000 H   0  0  0  0  0  0  0  0  0  0  0  0
    0.0000    0.0000    0.0000 H   0  0  0  0  0  0  0  0  0  0  0  0
    0.0000    0.0000    0.0000 H   0  0  0  0  0  0  0  0  0  0  0  0
    0.0000    0.0000    0.0000 H   0  0  0  0  0  0  0  0  0  0  0  0
  1  2  2  0
  2  3  1  0
  3  4  2  0
  4  5  1  0
  5  6  2  0
  1  6  1  0
  6  7  1  0
  2  8  1  0
  1  9  1  0
  9 10  1  0
 10 11  1  0
 11 12  2  0
 12 13  1  0
 13 14  2  0
 14 15  1  0
 15 16  2  0
 11 16  1  0
 16 17  1  0
 15 18  1  0
 18 19  1  0
 19 20  2  0
 20 21  1  0
 21 22  1  0
 18 22  2  0
 22 23  1  0
 23 24  2  0
 24 25  1  0
 25 26  2  0
 26 27  1  0
 27 28  2  0
 23 28  1  0
 20 29  1  0
 29 30  1  0
 29 31  1  0
 29 32  1  0
 27 33  1  0
  9 34  2  0
  9 35  2  0
  3 36  1  0
  4 37  1  0
  5 38  1  0
 10 39  1  0
 12 40  1  0
 13 41  1  0
 14 42  1  0
 24 43  1  0
 25 44  1  0
 30 45  1  0
 30 46  1  0
 30 47  1  0
 31 48  1  0
 31 49  1  0
 31 50  1  0
 32 51  1  0
 32 52  1  0
 32 53  1  0
 33 54  1  0
 33 55  1  0
M  END
>  <ALOGPS_LOGP>  (1) 
5.44

>  <ALOGPS_LOGS>  (1) 
-5.20

>  <ALOGPS_SOLUBILITY>  (1) 
3.27e-03 g/l

>  <DATABASE_ID>  (1) 
DB08912

>  <DATABASE_NAME>  (1) 
drugbank

>  <DRUGBANK_ID>  (1) 
DB08912

>  <DRUG_GROUPS>  (1) 
approved

>  <EXACT_MASS>  (1) 
519.101050904

>  <FORMULA>  (1) 
C23H20F3N5O2S2

>  <GENERIC_NAME>  (1) 
Dabrafenib

>  <INCHI_IDENTIFIER>  (1) 
InChI=1S/C23H20F3N5O2S2/c1-23(2,3)21-30-18(19(34-21)16-10-11-28-22(27)29-16)12-6-4-9-15(17(12)26)31-35(32,33)20-13(24)7-5-8-14(20)25/h4-11,31H,1-3H3,(H2,27,28,29)

>  <INCHI_KEY>  (1) 
BFSMGDJOXZAERB-UHFFFAOYSA-N

>  <JCHEM_ACCEPTOR_COUNT>  (1) 
6

>  <JCHEM_AVERAGE_POLARIZABILITY>  (1) 
49.70835710333269

>  <JCHEM_BIOAVAILABILITY>  (1) 
0

>  <JCHEM_DONOR_COUNT>  (1) 
2

>  <JCHEM_FORMAL_CHARGE>  (1) 
0

>  <JCHEM_GHOSE_FILTER>  (1) 
0

>  <JCHEM_IUPAC>  (1) 
N-{3-[5-(2-aminopyrimidin-4-yl)-2-tert-butyl-1,3-thiazol-4-yl]-2-fluorophenyl}-2,6-difluorobenzene-1-sulfonamide

>  <JCHEM_LOGP>  (1) 
5.459618017333335

>  <JCHEM_MDDR_LIKE_RULE>  (1) 
0

>  <JCHEM_NUMBER_OF_RINGS>  (1) 
4

>  <JCHEM_PHYSIOLOGICAL_CHARGE>  (1) 
0

>  <JCHEM_PKA>  (1) 
16.33627468372397

>  <JCHEM_PKA_STRONGEST_ACIDIC>  (1) 
7.156412338129958

>  <JCHEM_PKA_STRONGEST_BASIC>  (1) 
2.9067174619240834

>  <JCHEM_POLAR_SURFACE_AREA>  (1) 
110.85999999999999

>  <JCHEM_REFRACTIVITY>  (1) 
127.5141

>  <JCHEM_ROTATABLE_BOND_COUNT>  (1) 
5

>  <JCHEM_RULE_OF_FIVE>  (1) 
0

>  <JCHEM_TRADITIONAL_IUPAC>  (1) 
N-{3-[5-(2-aminopyrimidin-4-yl)-2-tert-butyl-1,3-thiazol-4-yl]-2-fluorophenyl}-2,6-difluorobenzenesulfonamide

>  <JCHEM_VEBER_RULE>  (1) 
0

>  <MOLECULAR_WEIGHT>  (1) 
519.562

>  <PRODUCTS>  (1) 
Tafinlar

>  <SALTS>  (1) 
Dabrafenib Mesylate

>  <SMILES>  (1) 
CC(C)(C)C1=NC(=C(S1)C1=NC(N)=NC=C1)C1=C(F)C(NS(=O)(=O)C2=C(F)C=CC=C2F)=CC=C1

$$$$
