
     RDKit          2D

 24 25  0  0  0  0  0  0  0  0999 V2000
    3.8167   -0.7667    0.0000 O   0  0  0  0  0  0  0  0  0  0  0  0
    3.1042   -1.1792    0.0000 C   0  0  0  0  0  0  0  0  0  0  0  0
    4.5292   -1.1750    0.0000 C   0  0  0  0  0  0  0  0  0  0  0  0
    2.3792   -0.7667    0.0000 C   0  0  0  0  0  0  0  0  0  0  0  0
    5.2375   -0.7542    0.0000 C   0  0  0  0  0  0  0  0  0  0  0  0
    1.6750   -1.1875    0.0000 C   0  0  0  0  0  0  0  0  0  0  0  0
    5.9542   -1.1625    0.0000 C   0  0  0  0  0  0  0  0  0  0  0  0
    3.1042   -2.0125    0.0000 C   0  0  0  0  0  0  0  0  0  0  0  0
    4.5292   -2.0000    0.0000 C   0  0  0  0  0  0  0  0  0  0  0  0
    1.6750   -2.0125    0.0000 C   0  0  0  0  0  0  0  0  0  0  0  0
    5.9625   -1.9917    0.0000 C   0  0  0  0  0  0  0  0  0  0  0  0
    2.3792    0.0583    0.0000 Cl  0  0  0  0  0  0  0  0  0  0  0  0
    5.2291    0.0625    0.0000 O   0  0  0  0  0  0  0  0  0  0  0  0
    2.3792   -2.4250    0.0000 C   0  0  0  0  0  0  0  0  0  0  0  0
    5.2417   -2.4042    0.0000 C   0  0  0  0  0  0  0  0  0  0  0  0
    0.9542   -2.4250    0.0000 Cl  0  0  0  0  0  0  0  0  0  0  0  0
    6.6792   -2.4042    0.0000 Cl  0  0  0  0  0  0  0  0  0  0  0  0
    0.0000    0.0000    0.0000 H   0  0  0  0  0  0  0  0  0  0  0  0
    0.0000    0.0000    0.0000 H   0  0  0  0  0  0  0  0  0  0  0  0
    0.0000    0.0000    0.0000 H   0  0  0  0  0  0  0  0  0  0  0  0
    0.0000    0.0000    0.0000 H   0  0  0  0  0  0  0  0  0  0  0  0
    0.0000    0.0000    0.0000 H   0  0  0  0  0  0  0  0  0  0  0  0
    0.0000    0.0000    0.0000 H   0  0  0  0  0  0  0  0  0  0  0  0
    0.0000    0.0000    0.0000 H   0  0  0  0  0  0  0  0  0  0  0  0
  2  1  1  0
  3  1  1  0
  4  2  2  0
  5  3  2  0
  6  4  1  0
  7  5  1  0
  8  2  1  0
  9  3  1  0
 10 14  1  0
 11 15  1  0
 12  4  1  0
 13  5  1  0
 14  8  2  0
 15  9  2  0
 16 10  1  0
 17 11  1  0
  7 11  2  0
  6 10  2  0
  6 18  1  0
  7 19  1  0
  8 20  1  0
  9 21  1  0
 13 22  1  0
 14 23  1  0
 15 24  1  0
M  END
>  <ALOGPS_LOGP>  (1) 
5.53

>  <ALOGPS_LOGS>  (1) 
-4.68

>  <ALOGPS_SOLUBILITY>  (1) 
6.05e-03 g/l

>  <DATABASE_ID>  (1) 
DB08604

>  <DATABASE_NAME>  (1) 
drugbank

>  <DRUGBANK_ID>  (1) 
DB08604

>  <DRUG_GROUPS>  (1) 
approved

>  <EXACT_MASS>  (1) 
287.951162589

>  <FORMULA>  (1) 
C12H7Cl3O2

>  <GENERIC_NAME>  (1) 
Triclosan

>  <INCHI_IDENTIFIER>  (1) 
InChI=1S/C12H7Cl3O2/c13-7-1-3-11(9(15)5-7)17-12-4-2-8(14)6-10(12)16/h1-6,16H

>  <INCHI_KEY>  (1) 
XEFQLINVKFYRCS-UHFFFAOYSA-N

>  <INTERNATIONAL_BRANDS>  (1) 
DERMAPROT; Stri-Dex cleansing bar

>  <JCHEM_ACCEPTOR_COUNT>  (1) 
1

>  <JCHEM_AVERAGE_POLARIZABILITY>  (1) 
25.924013696911807

>  <JCHEM_BIOAVAILABILITY>  (1) 
1

>  <JCHEM_DONOR_COUNT>  (1) 
1

>  <JCHEM_FORMAL_CHARGE>  (1) 
0

>  <JCHEM_GHOSE_FILTER>  (1) 
1

>  <JCHEM_IUPAC>  (1) 
5-chloro-2-(2,4-dichlorophenoxy)phenol

>  <JCHEM_LOGP>  (1) 
4.982101706333333

>  <JCHEM_MDDR_LIKE_RULE>  (1) 
0

>  <JCHEM_NUMBER_OF_RINGS>  (1) 
2

>  <JCHEM_PHYSIOLOGICAL_CHARGE>  (1) 
0

>  <JCHEM_PKA_STRONGEST_ACIDIC>  (1) 
7.680637141111775

>  <JCHEM_PKA_STRONGEST_BASIC>  (1) 
-6.674592364029308

>  <JCHEM_POLAR_SURFACE_AREA>  (1) 
29.46

>  <JCHEM_REFRACTIVITY>  (1) 
68.6941

>  <JCHEM_ROTATABLE_BOND_COUNT>  (1) 
2

>  <JCHEM_RULE_OF_FIVE>  (1) 
1

>  <JCHEM_TRADITIONAL_IUPAC>  (1) 
triclosan

>  <JCHEM_VEBER_RULE>  (1) 
1

>  <MOLECULAR_WEIGHT>  (1) 
289.542

>  <PRODUCTS>  (1) 
1% Triclosan Anti-microbial Foaming Skin Cleanser; 1% Triclosan Anti-microbial Skin Cleanser; 1014 Foaming Antimicrobial; 3 in 1 Antibacterial Hair and Body Wash; AEROSCENT Milk and Honey Antibacterial Moisturizing; APRIL Bath and Shower Anti-bacterial Hand 3 Pack; Ab Handsoap; Accent Plus Antibacterial Skin Cleanser; Acclaim; Acnopur Mousse Assainissante; Action Chemical Antibac Clear; Activ; Adasept Acne Gel; Adasept Liq 0.5%; AeroGreen Antibac; Aerogreen Antibacterial; After Sport Body Wash With Triclosan; Aire-Master Antibacterial Liquid Handsoap; Aire-Master Foaming AB handsoap; Aktif Anti-bacterial Lotion Soap; Alcohol Free Hand Sanitizer; All Day Freshness Antibacterial Body Wash with Moisturizer; Allegheny Antibac; Alphascrub Antiseptic Gel Soap; Alphascrub Antiseptic Gel Soap 0.5%; Altair Hand Care System Foam Anti-Bacterial Hand; Anchor Foaming Mango; Anti-Bacterial Moisturizing Hand Pumpkin Caramel Latte; Anti-bac - Asp 0.5%; Anti-bac Foam Soap; Anti-bacterial 3pk; Anti-bacterial Blue Raspberry Hand; Anti-bacterial Bubble Gum Hand; Anti-bacterial Deep Cleansing Hand Soap; Anti-bacterial Deep Cleansing Hand Soap / Savon Désincrustant Pour Les Mains Antibactérien; Anti-bacterial Foaming; Anti-bacterial Foaming Hand Soap; Anti-bacterial Fresh Aloe Hand; Anti-bacterial Gentle Foaming Hand Soap; Anti-bacterial Lemon Drop Hand; Anti-bacterial Moisturizing Hand Lotion; Anti-bacterial Moisturizing Hand Soap; Anti-bacterial Strawberry Kiss Hand; Anti-microbial Cleanser; Anti-microbial Moisturizer; AntiBAC FH FOAM Cucumber Aloe with Microhydration; AntiBAC FH Pure FOAM; AntiBac Foam Wash; AntiBac Foam Wash/Aerogreen; Antibac Foam Wash; Antibacterial; Antibacterial 2X; Antibacterial Amber Floral; Antibacterial Amber Hand Soap; Antibacterial Bar; Antibacterial Body Cleansing Gel - 0.55%; Antibacterial Body Wash; Antibacterial Body Wash Moisturizing; Antibacterial Body Wash Spring Water 2 in 1; Antibacterial Citrus Coconut; Antibacterial Citrus Fresh; Antibacterial Clean & Smooth; Antibacterial Clean & Smooth Gentle Skin Cleaner; Antibacterial Clean and Smooth Gentle Skin Cleanser; Antibacterial Cucumber Melon; Antibacterial Foam Energizing Citrus; Antibacterial Foam Lavender Fragrance; Antibacterial Foam with Moisturizers; Antibacterial Foaming; Antibacterial Foaming Berry Medley; Antibacterial Foaming Complete; Antibacterial Foaming Cranberry; Antibacterial Foaming Cucumber Melon; Antibacterial Foaming Fresh Pear; Antibacterial Foaming Green Tea; Antibacterial Foaming Hand Cleanser; Antibacterial Foaming Hand Soap; Antibacterial Foaming Hand Sp Cherry and Almond; Antibacterial Foaming Hand Sp Clean and Mild; Antibacterial Foaming Hand Sp Cucumber and Melon; Antibacterial Foaming Hand Sp Lemongrass; Antibacterial Foaming Hand Wash Olive; Antibacterial Foaming Olive and Aloe; Antibacterial Foaming Original; Antibacterial Foaming Pear Scent; Antibacterial Foaming Plumeria; Antibacterial Foaming Pomegranate; Antibacterial Foaming Refill; Antibacterial Foaming Skin Cleanser; Antibacterial Foaming Soap Tranquil Meadow; Antibacterial Foaming Soap Tropical Breeze; Antibacterial Foamy Mango; Antibacterial Fresh Pear; Antibacterial Hand; Antibacterial Hand - Aloe Vera; Antibacterial Hand - Ocean Fresh Scent; Antibacterial Hand - Strawberry Pomegranate Scent; Antibacterial Hand -Vanilla Brown Sugar; Antibacterial Hand Cleaner with Aloe and Vitamin E; Antibacterial Hand Cleanse; Antibacterial Hand Soap; Antibacterial Hand Soap With Light Moisturizers; Antibacterial Hand Soap for Sensitive Skin; Antibacterial Hand Sp With Light Moisturizers; Antibacterial Hand Sp With Light Moisturizers Refill; Antibacterial Hsoap Fresh and Light Scent - Refill; Antibacterial Light Moisturizers; Antibacterial Light Moisturizers Refill; Antibacterial Liquid Energizing Citrus; Antibacterial Liquid Hand; Antibacterial Liquid Hand Soap; Antibacterial Liquid Soap; Antibacterial Liquid Soap 0.5%; Antibacterial Liquid Soap Vanilla Savon Liquide Antibacterien Vanille; Antibacterial Lotion Soap; Antibacterial Mandarin; Antibacterial Mandarin and Grapefruit; Antibacterial Mandarin and Grapefruit Handsoap Gentle Cleansing Formula; Antibacterial Mandarin and Pomelo; Antibacterial Pamegranate Apple; Antibacterial Passion Flower; Antibacterial Plum Foam; Antibacterial Refill; Antibacterial SUNBLOSSOM; Antibacterial Skin Rain Forest Extract From Entiere; Antibacterial Sparkling Mist; Antibacterial Spray Hand Soap/savon Antibacterien En Aerosol Pour Les Mains; Antibacterial Wet Wipes; Antibacterial With Light Moisturizers; Antibacterial for The Kitchen; Antimicrobial; Antimicrobial 0.3% Triclosan / Antimicrobien 0.3% Triclosan; Antimicrobial Foam; Antimicrobial Foaming Hand Soap / Savon à Mains Moussant Antimicrobien; Antimicrobial Hand; Antimicrobial Handsoap With Triclosan; Antiodorant Antiseptic Lotion Soap; Antiseptic Concentrated Lotion Hand Soap .3%; Antiseptic Hand Soap  -  Liquid  1%; Antiseptic Hand Soap 0.3%; Antiseptic Hand Soap Liq 0.3%; Antiseptic Liquid Hand Soap 0.3%; Antiseptic Lotion Hand Soap 0.75%; Antiseptic-antiseptique Lot 0.3%; Aplicare Physicians Antibacterial; Appeal Antibac; Appeal Antibacterial Hand Wash; Applaud; Apple Cider Antibacterial Foaming Hand Wash; Apple Spice Antibacterial Foaming Hand Wash; Aquasept  -  Liquid - 0.5%; Aromafields Jasmine Scented Anti-Bacterial Hand; Aromafields Jasmine Scented Antibacterial Hand Wash; Aromafields Lavender Scented Anti-Bacterial Hand; Aromafields Lavender Scented Antibacterial Hand Wash; Aromafields Plumeria Scented Anti-Bacterial Hand; Aromafields Plumeria Scented Antibacterial Hand Wash; Aromafields Tiger Lily Scented Anti-Bacterial Hand; Aromafields Tiger Lily Scented Antibacterial Hand Wash; Asepso; Asept; Aspen Hand Soap Antibacterial; Astound Antibac; Astound Antibacterial; Aterra Antibacterial Foaming Hand Wash; Aterra Antibacterial Hand Wash; Athleticare Anti-Bacterial Hand AC 550; Aurora Antibacterial Apple Summer Berry; Aurora Antibacterial Basil Key Lime; Aurora Antibacterial Coconut Tropical Island; Aurora Antibacterial Japanese Flower Garden; Aurora Antibacterial Vanilla Brown Sugar; Autumn Medley Antibacterial Foaming Hand Wash; Avalon Premium French Milled; Avocado Antibacterial Hand Wash; Avocado Lime Antibacterial Foaming Hand Wash; Avocado Olive Antibacterial Foaming Hand Wash; Avon Clearskin Dual Action Anti-bacterial Cleanser; Avon Clearskin Medicated Foaming Cleanser; Avon Grime Busters Liquid Soap for Kids-.25%; Avon Naturals Antibacterial Liquid Soap; Avon Naturals Blackberry & Vanilla Anti-bacterial Hand Soap; Avon Skin So Soft Antibacterial Moisturizing Body Wash With Triclosan; Avon Skin So Soft Antibacterial Moisturizing Hand Lotion With Triclosan; Avon Skin So Soft Antibacterial Moisturizing Liquid Soap With Triclosan; Avon Skin-SO-soft Antibacterial Bar Soap; Bacti-Foam; Bacti-Free tm Antibacterial Hand; Bacti-Stat; Bacti-Stat AE; Bacti-stat 0.3%; Bacto Liq 0.2%; Basil and Plum Antibacterial Foaming Hand Wash; Basis All Clear Bar; BeCause Antibacterial Hand Jafra; Bebelle for Kids Antibacterial Hand; Ben E. Keith Antibacterial Hand Cleaner; Ben E. Keith Foaming Antibacterial Hand Cleaner; Benzocaine and Triclosan; Berkley Jensen Hypoallergenic Antibacterial Hand Soap Soap Enriched with Vitamin E and Aloe Vera Moisturizers; Bihos Antiseptic Lotion Hand Soap 0.3%; Bihos-lot 0.3%; Bio-lux; Bio-main San; Bio-perle - Lot Top 0.1%; Bio-safe Lotion; Bioclenz Medicated Hand Soap; Biotech-transfer Skin Shield Barrier Lotion; Blueberry Antibacterial Hand Wash; Blueberry Dream Antibacterial Hand Wash; Bob Barker Antibacterial Bar; Bobbarker Antibacterial Bar; Body Essence Raspberry Antibacterial; Body Series Antibacterial Hand Soap; Body Wash; Body Wash Clear Spring; Bodycology Brown Sugar Vanilla; Bodycology Cherry Blossom; Bodycology Coconut Lime; Bodycology Cucumber Melon; Bodycology Peppermint Sugar anti-bacterial scrubbing hand soap; Bodycology Sparkling Cranberry anti-bacterial scrubbing hand soap; Bodycology White Gardenia; Bodycology white gardenia anti-bacterial foaming hand soap; Bodycology white gardenia anti-bacterial scrubbing hand soap; Bright Solutions; Bright Solutions Antibac; Bright Solutions Antibacterial; CARE ONE Antibacterial Foaming Hand Soap Green Tea; CV Medicated; CVS Antibacterial Foaming Kitchen; CVS Phramacy Antibacterial Melon; Cactus Flower and Mango Antibacterial Deep Cleansing Hand Sp; Cactus Flower and Mango Antibacterial Gentle Foaming Hand Sp; Cadisept Gel 0.3%; Calgon Vestal Medicated Lotion Soap 0.5%; Candy Apple Anti Bacterial Foaming Hand; Cardinal Health Antimicrobial Soap with Triclosan; Care One Antibacterial Peppermint Swirl; Care One Antibacterial Rum Raisin; Care One Antibacterial Snow Kissed Pear; Care One Antibacterial Tangerine Spice; Care One Creamy Coconut; Care One Lemon Verbena; Care One Peppermint Swirl; Care One Pine; Care One Pumpkin Pie; Care One Sun Kissed Pear; Care One Vanilla Apple Blossom; Care One Vanilla Bean; Careone Antibacterial; Careone Apple Berry; Careone Country Apple; Careone Lime Basil; Careone Tahitian Coconut; Careone Vanilla Brown Sugar; Caribbean Escape Anti Bacterial Foaming Hand; Certaphil Purifying Facial; Cetaphil; Cetaphil Gentle Clean; Cetaphil Gentle Cleansing Antibacterial Bar; Cetaphil MEN 3-in-1 Active Antibacterial Bar; Cetaphil Men; Cetaphil Purifying Facial Bar; Chemstar Antibac; Cherry Creme Hand Soap Antibacterial; Chlorel; Chlorosept; Cinnamon Clove Antibacterial Foaming Hand Wash; Cinnamon Sticks Antibacterial Foaming Hand Wash; Cinnamon and Cream Antibacterial Foaming Hand Wash; Citrus Basil Antibacterial Cleansing Hand Wash; Citrus Basil Antibacterial Creamy Hand Wash; Citrus Basil Antibacterial Foaming Hand Wash; Citrus Basil Antibacterial Hand Wash; Citrus Basil and Lime Antibacterial Hand Wash; Citrus Breeze Antibacterial Foaming Hand Wash; Citrus Burst Antibacterial Cleansing Hand Wash; Citrus Burst Antibacterial Foaming Hand Wash; Citrus Burst Antibacterial Hand Wash; Citrus and Aloe Antibacterial Foaming Hand Wash; Citrus and Casaba Antibacterial Hand Wash; Citrus and Olive Antibacterial Foaming Hand Wash; Citrus, Basil and Lime Antibacterial Foaming Hand Wash; Clario Foaming Antibacterial Skin Cleanser; Clario Ultra Blue Antibacterial Foaming Skin Cleanser; Clean & Clear Foaming Facial Cleaner; Clean & Clear Foaming Facial Cleanser; Clean Force; Clean Strike; Clean and Refresh Body Wash Moisturizing; Clean and Refreshing Body Wash Spring Fresh; Clean ems Hand Cleaner Towels; Clear Antibacterial Hand; Clearasil Daily Face Wash; Clearasil Medicated Cleansing Soap; Clearasil Skin Tone Acne Crm Medication; Clearasil Vanishing Acne Crm Medication; Clearskin Pore Penetrating Cleanser; CliniShield Health Care Personnel Handwash; Cns 80 Antiseptic Waterless Hand Cleaner; Coconut Antibacterial Creamy Hand Wash; Colgate Total - Advanced Health; Colgate Total Advance Whitening; Colgate Total Advanced Clean; Colgate Total Advanced Deep Clean; Colgate Total Advanced Fresh plus Whitening; Colgate Total Advanced Health Daily Repair; Colgate Total Advanced Health Gum Defense; Colgate Total Advanced Health Sensitive; Colgate Total Advanced Whitening; Colgate Total Clean Mint ANTIGINGIVITIS; Colgate Total Clean in Between; Colgate Total Daily Repair; Colgate Total Fresh Mint Stripe; Colgate Total Tpt; Colgate Total Whitening; Colgate Total Whitening Gel; Compliance; Contend Anti-bacterial Gel Skin Cleanser; Cool Plum Antibacterial foaming hand; Coral; Cotton Candy Anti Bacterial Foaming Hand; Country Apple Antibacterial Foaming Hand Wash; Cranberry Antibacterial Foaming Hand Wash; Cranberry Cherry Scented Antibac; Cranberry Cream Antibacterial Hand Wash; Cranberry Orange Antibacterial Foaming Hand Wash; Cranberry Spice Antibacterial Foaming Hand Wash; Creamy Peach Antibacterial Foaming Hand Wash; Crown Antiseptic Hand Soap; Cucumber & Melon Antibacterial Hand Soap; Cucumber Lime Antibacterial Foaming Hand Wash; Cucumber Melon Antibacterial Foaming Hand Wash; Cucumber and Lime Antibacterial Foaming Hand Wash; Cv Medicated Lotion Soap; Cvs Pharmacy; Cvs Pharmacy Antibacterial; Cvs Pharmacy Clean Antibacterial; Cvs Pharmacy Mandarin Citrus; Cvs Pharmacy Pear White Tea; DELUXE Dish DETERGENT; DHC Hand; DT Antibacterial Foaming Hand Wash; Dalan Antibacterial Deodorant Golden Tropics; Dalan Antibacterial Deodorant Ocean Breeze; Dalan Antibacterial Deodorant Spring Freshness; Dalan Covex Antibacterial Deodorant Maximum Hygiene; Dalan Covex Antibacterial Deodorant Natural Hygiene; Dalan Covex Antibacterial Deodorant Soft Hygiene; Dawn Classic; Dawn Ultra Concentrated Apple Blossom; Dawn Ultra Concentrated Orange; DawnMist Antibacterial; DawnMist Deodorant Bar No. 1 1/2; DawnMist Deodorant Bar No. 1/2; DawnMist Deodorant Bar No. 3; DawnMist Deodorant Bar No. 3/4; DawnMist Deodorant Bar No. 5; DawnMist Deodorant Bar Soap No. 1; Dawnmist Deodorant; Deb Antimicrobial Fragrance and Dye Free; Deb Gold; Deb Med Antibacterial Foam Hand Wash; Deb Med Antimicrobial Foaming Hand Wash; Deb Med Antimicrobial Foaming Hand Wash Cucumber Aloe; Deb Med Antimicrobial Foaming Hand Wash Fragrance Free Dye Free; Deb Med Antimicrobial Foaming Hand Wash Fresh Grapefruit; DebMed Antimicrobial; DebMed Antimicrobial Body Wash and Shampoo; Delta Foremost Antibac; Deluxe All-purpose; Derma Med; Derma-Glove; DermaCare; DermaCen Antimicrobial-T Hand; DermaCen Foaming Antimicrobial-T Hand; DermaSana; Dermagerm; Dermaprot Triclotrex-B; Dermasept Plus Liq 1%; Dermaseptic; Dermoplus Medicated; Dewberry Burst Antibacterial Foaming Hand Wash; Dg Body Antibacterial; Dial Aloe Antibacterial Soap with Moisturizer; Dial Clear and Refresh Antibacterial Hand Soap Clear; Dial Complete Antibacterial Antibactérienne Foaming Hand Wash Mousse Nettoyante Pour Les Mains Gentle On Skin Douce Pour LA Peau Power Berries Super Petits Fruits; Dial Complete Antibacterial Antibactérienne Foaming Hand Wash Mousse Nettoyante Pour Les Mains Gentle On Skin Douce Pour LA Peau Spring Water Source Naturelle; Dial Complete Antibacterial Antibactérienne Foaming Hand Wash Mousse Nettoyante Pours Le Mains With/avec Lotion; Dial Complete Antibacterial Foaming Hand Wash; Dial Complete Antibacterial Foaming Hand Wash Hello Kitty; Dial Complete Antibacterial Foaming Hand Wash White Tea and Vitamin E; Dial Complete Antibacterial Foaming Hand Wash with Lotion Clean Citrus, Gentle on skin; Dial Complete Antibacterial Foaming Hand Wash with Lotion Cool Plum, Gentle on skin; Dial Complete Antibacterial Foaming Hand Wash with Lotion Cranberry with Antioxidants; Dial Complete Antibacterial Foaming Hand Wash with Lotion Fresh Pear with Lotion; Dial Complete Antibacterial Foaming Hand Wash with Lotion Gentle on Skin, Frosted Pear with Lotion; Dial Complete Antibacterial Foaming Hand Wash with Lotion Iced Cranberry, Gentle on Skin; Dial Complete Antibacterial Foaming Hand Wash with Lotion Original Scent, Gentle on skin; Dial Complete Antibacterial Foaming Hand Wash with Lotion Soothing White Tea, Gentle on skin; Dial Complete Antibacterial Foaming Hand Washholiday line holiday line holiday line; Dial Complete Antibacterial Foaming Hand Washkitchen crisp limkitchen crisp lim kitchen crisp lime; Dial Complete Antibacterial/ Antibactérienne Foaming Hand Wash/mousse Nettoyante Pour Les Mains; Dial Complete Hello Kitty Antibacterial/antibactérienne Foaming Hand Wash/mousse Nettoyante Pours Les Mains; Dial Complete Moisturizing Antibacterial Foaming Hand Wash; Dial Complete With Lotion Antibacterial Foaming Hand Wash; Dial Country Orchard Antibacterial Soap with Moisturizer; Dial Gold Antibacterial Soap with Moisturizer; Dial Lavender and Twilight Jasmine Antibacterial Body Wash; Dial Mountain Fresh Antibacterial Body Wash; Dial Mountain Fresh Antibacterial Soap with Moisturizers; Dial Pomeganate and Tangerine Antibacterial Soap with Moisturizer; Dial Spring Water Antibacterial Soap with Moisturizer; Dial Tropical Escape Antibacterial Body Wash; Dial White Tea and Vitamin E Antibacterial Hand Soap; DigiClean E; DigiClean Slim-Line; DigiKlenz Antibacterial Hand Soap; Digiclean; Digiclean Antibacterial Foam Hand Soap; Digiclean Antibacterial Hand Soap; Digiclean E Hand Soap; Digiclean Slim-line Anti-bacterial Foam Hand Soap; Dignity Antibacterial; Dignity Health Medspa Antibacterial; Dimension Foaming Antibacterial Hand Soap; Dreumex Omnicare; Dt Antibacterial Hand; Dvm Handsoap Liq 0.5%; Dygen Liq 0.5%; ELF Milk and Honey Cleansing Anti-bacterial Hand; EZ Foam 6793; EZ-SAN Anti-Bacterial Foam Hand; Eco-Clean Elite; Eco-clean Elite Antibacterial Foam Hand Soap; EcoCare 250; Ecolab; Ecolab Digiclean; Ecolab Facilipro; Ecosave Grapefruit and Lemongrass Soap Antibacterial Hand Soap; Ecosave Japanese Cherry Blossom Soap Antibacterial Hand Soap; Ecosave Lavender Antibacterial Hand Soap; Endure 100; Endure 200; Endure 250; Endure 250 Foaming Healthcare Personnel Hand Wash; Enriched Foam Antibacterial Soap; Ensuite; EpiCare Plus Antimicrobial Skin Cleanser; EpiSoft Foaming Antibacterial Lotin Soap; Episoft Foaming Antibacterial Lotion Soap; Equaline; Equaline Liquid; Equate Antibacterial Foaming; Equate Spring Showers Antibacterial; Essential Everyday Orange Scent; Estesol Clear; Estesol Gold; Excelon Antibacterial Foam Cleanser; Excelon Antibacterial Plum Scent Foam Handwash Triclosan Liquid; Exchange Select Ultra Citrus Scent; Exuviance Moisturizing Antibacterial Facial Cleanser; Fa; Fair and Square Antibacterial with Moisturizer; Family Dollar Antibacterial; Family Dollar Antibacterial Hand; Family Dollar Foaming Antibacterial Hand Wash; First Aid Antiseptic Well at Walgreens; First Aid Cream 0.5%; First Degree Burn; First Force; First Mark Antibacterial Hand Wash; First Mark Foam Antimicrobial Hand Cleaner; Fivestar Specialties; Florafree Gel 0.3%; Foam Antibacterial Hand Wash; Foaming Antibacterial; Foaming Antibacterial Cucumber Melon; Foaming Antibacterial Hand Soap; Foaming Antibacterial Pear; Foaming Antibacterial Plumeria; Foaming Antimicrobial; Foaming Hand Soap; Foaming Hand Wash; Foaming Hand Wash Antibacterial; Foamy Mango; Forest Fresh; Freds Antibacterial Fresh Pear; French Vanilla and Lavender Antibacterial Foaming Hand Wash; FresHands; Fresh Blueberry Antibacterial Foaming Hand Wash; Fresh Citrus; Fresh Herbs Antibacterial Foaming Hand Wash; Fresh Herbs Antibacterial Hand Wash; Fresh Lemon Antibacterial Foaming Hand Wash; Fresh Lemon Antibacterial Hand Wash; Fresh Lime Antibacterial Foaming Hand Wash; Fresh Linen Antibacterial Foaming Hand Wash; Fresh Pear Foaming hand; Fresh PearSilk Antibacterial Foaming Hand; Fresh Picked Strawberries Anti Bacterial Foaming Hand; Fresh Power Gold; Freshscent Anti-Bacterial; Fruit Medley Antibacterial Foaming Hand Wash; Fu Er Jie; Fuller Antibacterial Hand; Fullermax #1084 - Lot 0.3%; G-995 - Lot Top 0.1%; GOJO Antibacterial; GOJO E2 Sanitizing Ltn Sp; Gain Ultra Lemon Zest; Gehwol Foot and Shoe Deodorant; Gel-X Liq 0.3%; Gentle Fresh Defense; Gentle Rain Antibacterial; Gentle Rain Antibacterial All Body Cleanser; Georgia Pacific Gold Am; Georgia Pacific Pacific Garden Handsoap; Germ-X; Germa Tan; Germasidol; Germicida Antimicrobial; Ginger Blossom Antibacterial Foaming Hand Wash; Ginger and Lemon Antibacterial Foaming Hand Wash; Gojo Antibacterial Foam Handwash Triclosan Liquid; Gojo Antibacterial Plum Scent Foam Handwash Triclosan Liquid; Gold Antibacterial Hand Soap with Moisturizer; Golden Pear Antibacterial Cleansing Hand Wash; Golden Pear Antibacterial Foaming Hand Wash; Golden Pear Antibacterial Foaming Handwash; Good Neighbor Pharmacy First Aid; Grape Vineyard Antibacterial Hand Wash; Great Value Ultra Concentrated Green Apple Scent; Great Value Ultra Concentrated Orange Scent; Green Tea and Ginseng Antibacterial Foaming Hand Wash; H50h Antiseptic Liq Hand Soap 0.3%; HFS Antimicrobial Foam Hand Soap With Triclosan; HUSKY 575 Foaming Antiseptic Hand Cleaner; Hand; Hand Antibacterial Premium; Hand Cleanse; Hand Cleanse - Ocean Fresh; Hand Cleanse - Strawberry Pomegranate; Hand Cleanse Citrus Blast Scent; Hand Cleanse Fresh Peach Scent; Hand Cleanse Refill; Hand Cleanse Water Melon Scent; Hand Essentials Antibacterial; Hand Guard Foaming Antimicrobial; Hand Kleen Foaming Antibacterial Hand; Hand Kleen Golden Touch Antibacterial Hand Cleanser; Hand Kleen Premium Antibacterial Hand; Hand Kleen Southern OrchardAntibacterial Han Antibacterial Hand Cleanser; Hand Sanitizer Alcohol Free; Hand Sanitizer Spray; Hand Sanitizer Wipes; Hand Wash Nettoyant Pour Les Mains Citrus Cilantro None; Hand Wash Nettoyant Pour Les Mains Orange Pekoe None; Hand Wash Nettoyant Pour Les Mains Plum Grapefruit None; Hand Wash Nettoyant Pour Les Mains Vallina Tuberose None; Handfresh Antibacterial Cleanser; Hands On Defense; Handsoap; Handtastic Foamy Mango; Hansol L'executive Antiseptic Liq 0.3%; Harris Teeter Antibacterial; Harris Teeter Foaming; Harvest Grape Antibacterial Foaming Hand Wash; Haunted Halloween Antibacterial Foaming Hand Wash; Healing Waters Cucumber Mint Antibacterial Hand Soap; Healing Waters Mandarin Vanilla Antibacterial Hand Soap; Healing Waters Sweet Pea Antibacterial Hand Soap; Health Care Personnel Handwash; Health Smart Antibacterial Spring Rain; Health Smart Antibacterial cucumber melon; Health Smart Antibacterial lavender chamomile; Health Smart Antibacterial original; Health Smart Antibacterial sweet pea orchid; Health Stat; Health-Stat Foam; Healthguard Anti-bacterial Hand Soap; Healthy Accents Antibacterial Body Wash Spring Fresh; High Five; Hill Country Essentials; Hill Country Essentials Antibacterial; Hill Country Essentials Antibacterial Foaming; Hill Country Essentials Lavender and Jasmine; Hillyard Golden Antimicrobial; Hillyard Golden Antimicrobial Foaming; Holiday Elegance; Holiday EleganceFrosted Gingerbre Frosted Gingerbread; Holiday EleganceFrosted GingerbreFrosted Gingerbre Frosted Gingerbread; Holiday ElegancePeppermint Twist Peppermint Twist Peppermint Twist; Holiday Treats Antibacterial Foaming Hand Wash; Home 360 Ultra Dish Detergent Green Apple Scent; Honey Almond Antibacterial Foaming Hand Wash; Honey Apple Antibacterial Foaming Hand Wash; Honey Vanilla Antibacterial Foaming Hand Wash; Honey Vanilla Antibacterial Hand Wash; Husky 575 Foaming Antiseptic Hand Cleaner; Hygenipak Green Anti-microbial Skin Cleanser; Hygenipak Instafoam Anti-microbial Foaming Skin Cleanser; Hygenipak Plus Anti-microbial Skin Cleanser; ICI Food Handler Foam Wash; ICI Pleasantly Perfumed Antibacterial Foam Handwash; Iced Vanilla Antibacterial Foaming Hand Wash; Image Essentials; Image Essentials Antibacterial; Image Essentials Antibacterial Gold; Image Essentials Antibacterial Hand Gold; Image Essentials Antibacterial Hand Mandarin and Grapefruit; Image Essentials Spring Fresh; Inhibit Gel; Ino-F Antibac Antibacterial Hand Soap; Instant First Aid CVS; Island Banana Antibacterial Foaming Hand Wash; Island Blossom Antibacterial Foaming Hand Wash; Island Breeze Antibacterial Foaming Hand Wash; Island Spring Antibacterial Body Wash with Moisturizers; Isohex; Jabonito Fresh; Jade; Japanese Blossom Scented Antibac; Jasmine Mint Antibacterial Foaming Hand Wash; Jasmine Rose Hand Wash Nettoyant Pour Les Mains None; Jasmine Tea and Basil Antibacterial Hand Sp; Jh-19 Antiseptic Hand Soap 0.3%; John Deere Hand Sanitizer Wipes; Johnson's Cln and Clr.antibact.foam.cleanser; Joy Non-ultra; Joy Ultra Orange; Juicy Orange Antibacterial Foaming Hand Wash; KLEENEX Antibacterial Skin Cleanser; Karesse; Kay QSR; Keystone; Keystone Antibacterial; Keystone Antibacterial Foam Hand Soap; Keystone Slim-line Antibacterial Foam Hand Soap; Kimcare Antibacterial Healthcare Personnel Handwash; Kimcare Antibacterial Luxury Foam Antibacterial Skin Cleanser; Kindest Kare Antimicrobial Foaming Handwash Healthcare Personnel Handwash; Kitchen Citrus foaming hand; Kiwi Lime Antibacterial Foaming Hand Wash; Kiwi Strawberry Antibacterial Foaming Hand Wash; Kiwi Strawberry Foaming Hand Wash; Kleenex Antibacterial Foam Skin Cleanser; Kleenex Clear Antibacterial Skin Cleanser; L'executif Antiseptic Handsoap 0.5%; Laura Line Antibacterial 0.2% Cream Soap; Laura Line Antibacterial 1% Liquid Soap; Laura Line Antibacterial Soap; Lavender Antibacterial Foaming Hand Wash; Lavender Sage Antibacterial Foaming Hand Wash; Lavender and Sage Antibacterial Foaming Hand Wash; Le Techniq Antibacterial Vanilla Brown Sugar; Le Techniq Foaming Antibacterial Hand; Le Techniq Morning Mist Antibacterial Hand; Le Techniq Pear; Le Techniq Spring Fresh; Lemon Basil Antibacterial Foaming Hand Wash; Lemon Drop Antibacterial Hand Wash; Lemon Fresh Antibacterial Foaming Hand Wash; Lemon Verbeba Antibacterial Foaming Hand Wash; Lemon Verbena Antibacterial Foaming Hand Wash; Lemon Verbena Antibacterial Hand Wash; Lemon Zest Antibacterial Foaming Hand Wash; Lemon Zest Antibacterial Hand; Lemon and Basil Antibacterial Foaming Hand Wash; Lemon and Olive Oil Antibacterial Foaming Hand Wash; Lemongrass Tea Antibacterial Foaming Hand Wash; Lever 2000 Antibacterial; Lever 2000 Antibacterial Liquid Soap; Lever Bac Anti-bacterial Hand Cleaner Liq; Liquid Hand Cleanse; Liquid Nature Antibacterial Hand Soap; Lornamead Yardley; Lotion Kleen Green 0.55%; Lucky Antibacterial Deodorant; Lucky Antibacterial Hand Soap Supersoft; Lucky Supersoft Antibacterial Hand; Luxury; Luxury Antibacterial Foaming; Lynx medi foam; Lysol I.C. Antimicrobial; Lysol No Touch; Macaroon Antibacterial Foaming Hand Wash; Mandarin Nectar Antibacterial Foaming Hand Wash; Mandarin Nectar Antibacterial Foaming Handwash; Mandarin Orange Antibacterial Foaming Hand Wash; Mandarin Orange Antibacterial Hand; Manderin Orange Antibacterial Foaming Hand Wash; Mango Madness Anti Bacterial Foaming Hand; Mango Spice Antibacterial Foaming Handwash; Manosan; Marathon - Savon A Mains Antimicrobien - Triclosan Gel; Market Basket Ultra; Maxim; Mc-10 Antiseptic Hand Lotion 0.3%; McKesson Antimicrobial Hand; McKesson Foaming Hand Cleanse; Mckesson Antimicrobial Hand; MedSpa Antibacterial Bar; Medi Clean Antimicrobial/antibacterial Hand Cleaner; Medicated Lotion Soap M.L.S. 0.3% Triclosan; Medicated Soft N Sure Healthcare Personnel Handwash; Medspa Antibacterial Bar; Meijer Antibacterial Foaming; Menu Antiseptic Hand Soap White Pearl; Mevon 77 Liq - Extra Mild; Microline Antiseptic Hand Cleanser 0.5%; Mint and Aloe Antibacterial Foaming Hand Wash; Mischievous Orange Antibacterial Foaming Hand Wash; Mistletoe and Mint Antibacterial Foaming Hand Wash; Mline; Moist SURE; Moisturizing Anti-bacterial Hand Soap; Moisturizing Antibacterial Hand Cleanser; Moussant Foaming Antibacterial Hand Soap; Mousse Antibacterial; Mulling Spices Antibacterial Foaming Hand Wash; My Essentials Citrus Scent; Myo-ther Antimicrobial Skin Cleanser; Mystic; Nail MD; Natural Concept Body Wash Spring Breeze; Natural Spring Antibacterial Hand Soap; Naturals Antibacterial Liquid Soap Vanilla; Naturals Cucumber and Melon Anti Bacterial Hand; Naturals Lime Blossom & Verbena Anti-bacterial Hand Soap; Naturals Pomegranate and Mango Anti-Bacterial Hand; NeoStrata Antibacterial Facial Cleanser; North Woods DermaFoam Premium Antibacterial; Noxzema Bacteria Fighting Cleanser; Noxzema Triple Clean; Noxzema Triple Clean Antibacterial Lathering Cleanser; Nu Skin Antibacterial Body Cleansing; Ocean Breeze Antibacterial Foaming Hand Wash; Oil Free Foaming Facial Cleanser; Olive Leaf Antibacterial Cleansing Hand Wash; Olive Leaf Antibacterial Creamy Hand Wash; Olive Leaf Antibacterial Foaming Hand Wash; Olive Oil Antibacterial Foaming Hand Wash; Olive Oil and Lemon Antibacterial Foaming Hand Wash; One Step Anti-bacterial Moisturizing Hand Lotion; One Step Anti-bacterial Moisturizing Hand Soap; Optisource Foam Antibacterial Skin Cleanser; Or/scrub; Oral Plan Antibacterial Mouthrinse With Fluoride; Orange Basil and Lime Antibacterial Foaming Hand Wash; Orange Bliss Antibacterial Foaming Hand Wash; Orange Blossom Antibacterial Foaming Hand Wash; Orange Cinnamon Antibacterial Foaming Hand Wash; Orange Clove Antibacterial Foaming Hand Wash; Orasoft 3; Orchid; Orchid By H E B Antibacterial Hand White Lavender and Mint; Orchid By H E B Antibacterial Moisturizing Vanilla and Apple Blossom; Orchid By H E B Cactus Flower and Mango Antibacterial Gentle Foaming Hand; Orchid By H E B Vanilla Brown Sugar; Orchid By H E B White Lavender and Mint; Orchid Cactus Flower and Mango; Orchid Jasmine Tea and Basil; Original Antibacterial Foaming hand; Original Antibacterial foaming hand Source; Our Family Dish and Antibacterial Citrus Burst Scent; Oxy Daily Facial Cleanser Regular; Oxy Medicated Daily Face Wash E.S. 0.6%; Oxy Medicated Daily Face Wash Regular 0.3%; Oxy Medicated Soap 1%; PANROSA Antibacterial Hand; PANROSA Green Apple Scented Hand; PANROSA Honey Scented Hand; PANROSA Lavender Scented Hand; PANROSA Rose Scented Hand; PF Anti Bac; PRO-LINK OPTIMUM Foaming Medicated Handwash; PROBLEND Antibacterial Foam; PROVON Antibacterial Foam Handwash; PROVON Antibacterial Perineal Wash; PROVON Antibacterial Plum Foam Handwash; PROVON Foaming Medicated Handwash with Moisturizers and Triclosan; PROVON Medicated Foam Handwash with Advanced Moisturizers and Triclosan; Pacific; Pacific Anti-bacterial Hand Cleanse Blueberry Essence; Pacific Anti-bacterial Hand Cleanse Kiwi Essence; Pacific Anti-bacterial Hand Cleanse Peach Essence; Pacific Anti-bacterial Hand Cleanse Strawberry Essence; Pacific Garden Antibacterial Foam Soothing Lavender; Pacific Garden Antimicrobial, Fragrance Free, Dye Free; Pacific Garden Antimicrobial, Pacific Citrus, Mandarin; Palmers Skin Success; Panache; Panache Antibacterial Body Wash; Panoxyl Clear Acne Cleansing Gel; Panrosa Antibacterial Hand With Moisturizers; Papaya Mango Antibacterial Foaming Hand Wash; Passion Flower Antibacterial Foaming Hand Wash; Peaches and Cream Antibacterial Foaming Hand Wash; Pear Antibacterial Hand Soap; Pear Barlet Antibacterial Hand; Pear Blossom Antibacterial Gel Hand Wash; Pear Foaming Soap; Perfect Purity Antibacterial Gold; Perle + Antiseptic Lotion Soap / Savon Lotion Antiseptique; Personal Care Antibacterial Foaming Hand Wash; Personal Care Antibacterial Hand; Personal Care Antibacterial Hand - Fresh Melon; Personal Care Antibacterial Hand - Fresh Peach; Personal Care Antibacterial Hand - Raspberry; Personal Care Oil Free Foaming Facial Cleanser; Phs Gold; Pier 1 Imports Citrus and Sunflowers Anti-bacterial Hand Wash N/A; Pier 1 Imports Coconut Breeze Anti-bacterial Hand Wash N/A; Pier 1 Imports Cool Watermelon Anti-bacterial Hand Wash N/A; Pier 1 Imports Granny Smith Apple Anti-bacterial Hand Wash N/A; Pier 1 Imports Lily Flower Anti-bacterial Hand Wash N/A; Pier 1 Imports Ocean Water Anti-bacterial Hand Wash N/A; Pier 1 Imports Sweet Cherry Anti-bacterial Hand Wash N/A; Pier 1 Imports Sweet Grape Anti-bacterial Hand Wash N/A; Pier 1 Imports Sweet Orange Anti-bacterial Hand Wash N/A; Pier 1 Imports Warm Vanilla Anti-bacterial Hand Wash N/A; Pineapple Orange Antibacterial Foaming Hand Wash; Pineapple Pear Antibacterial Foaming Handwash; Pink Peony Antibacterial Foaming Hand Wash; Pioneer Antibac; Piranha Brand Foaming Antibacterial Hand; Pomegranate & Mango Antibacterial Hand Soap; Pomegranate Antibacterial Foaming Hand Wash; Pomegranate Orange Antibacterial Foaming Hand Wash; Pomegranate Spice Antibacterial Hand Wash; Powerhouse Fresh Scent Ultra Dish; Prevens; Price Chopper Pumpkin Spice Antibacterial Foaming; Prime Source Antibacterial Foam Soap; Prime Source Antibacterial Plum Scent Foam Handwash Triclosan Liquid; Primory Antibacterial Plum Scent Foam Handwash Triclosan Liquid; Pro Advantage Antibacterial; ProClean; ProFormance Series Antibacterial; Process Gel 0.3%; Proforce Commercial Products; Proformance Antibacterial; Promani Lot 0.2%; Protex Balance antibacterial liquid hand soap; Protex antibacterial; Provon Antibacterial Body Wash; Provon Foaming Medicated Handwash With Triclosan and Moisturizers; Provon Medicated Foam Handwash With Advanced Moisturizers; Provon Medicated Lotion Soap With Triclosan; Publix UltraDish Detergent; Publix UltraDish Detergent Green Apple Scent; Pumpkin Seeds Antibacterial Foaming Hand Wash; Pumpkin Spice Antibacterial Foaming Hand Wash; Pureforce; Purgo Satin Foam; Purgo Ultra; Purgo Ultra Foam; Puritan; Puro Azul; Qfs Antimicrobial Hand Soap With Triclosan; Quik Gel; Quik Spray; Quik Wipes; Quiksan; Radiance; Raggedy Ann and Andy Cotton Candy; Raggedy Ann and Andy Tropical Breeze; Red Apple Antibacterial Hand; Reeva Antibacterial Green Apple; Refresh AntiBac Foam; Reliable Mousse Foaming Antiseptic Hand Soap; Renewal; Rite Aid; Rite Aid Antibacterial; Rite Aid Foaming Hand; Rite Aid Liquid; Rite Aid Renewal; Rite Aid Renewal Antibacterial; Rite Aid Renewal Antibacterial Clear Spring; Rite Aid Renewal Clear Spring; Rite Aid Renewal Pear; Rite Aid Renewal White Tea; Roccos Old School Tattoo Balm Anti Bacterial Wash; RoyaLab Germ Away; Royal Antibacterial (apple and pear) moisturizing hand cleanse; Royal Antibacterial (coconut and lime); Royal Antibacterial (coconut and lime) moisturizing hand cleanse; Royal Antibacterial (mango); Royal Antibacterial Orange Berry Hand Cleanse; Royal Antibacterial Passion Plum Hand Cleanse; Royal Antibacterial Raspberry Hand Cleanse; Royal Antibacterial Tropical Fruit Hand Cleanse; Royal Antibacterial apple and pear; Royal Antibacterial mango Moisturizing Hand; S802 Supreme Liq  0.3%; SBS UltraGreen; SBS UltraPink; Safe 4 Hours Anti-microbial Spray Skin Protector; Safe 4 Hours Antibacterial Skin Protector; Safe Hands Antibacterial Liquid Hand; Safeguard; Safety Gold Antibacterial Hand; Safeway; Safeway Care Refill; Safeway Home Lemon Scent; Safeway Home Orange Scent; Safeway Triclosan Antibacterial Liquid Soap; Sage and Citrus Antibacterial Foaming Hand Wash; Sandy Beaches Antibacterial Foaming Hand Wash; Sani Clean Silk Antibacterial Hand Soap; Sani-derm Sd-300 Antibact Hand Soap 0.3%; SaniSuds Foam Antibacterial Hand; Sanitex MVP Foam Anti-Bacterial; Sanygel 0.3%; Satin Pink; Savon Antiseptique Milan; Savon Pour Les Mains Antiseptique Menu; Scott Antibacterial; Scott Antibacterial Foam Soap; Scott Clear Antibacterial Skin Cleanser; Sea Breeze Antibacterial Foaming Hand Wash; Seaqaderm Soap; Secure Antibac; Sentry Antibac; Septisol NPD with Triclosan Antiseptic; Septisol Solution; Serca Antibacterial Hand Soap; Servo-Stat T; Servo-Stat T Foam; Servo-Stat TE; Shop Rite Ultra So-soft; Shopko Antibacterial Deep Cleansing Hand; Shopko Antibacterial Foaming Hand Cleanser; Shopko Antibacterial Foaming Hand Sanitizer; Shunfa Anti-Bacteria Spra; Signatry Antibacterial Foam Cleanser; Signatry Antibacterial Plum Scent Foam Handwash Triclosan Liquid; Signature Care Antibacterial Foaming Hand Pear Scent; Signature Care Antibacterial Foaming Moisturizing; Silk Antibacterial Foaming Hand; Silk Antibacterial Foaming Hand Fresh Pear; Silk Antibacterial Foaming Hand Original; Simple Pleasures Antibacterial Foaming Hand; Simple Pleasures Antibacterial Hand; Simply Botanical Sensation Soothing Skin; Simply Right Antibacterial; Simply Right Body Care; Simply Right Body Care Antibacterial; Simply Right Body Care Sparkling Mist; Simply Right Sparkling Mist; Skintegrity Antibacterial Hand Amber; Skintegrity Antibacterial Hand Blue; Skintegrity Antibacterial Hand Clear; Skintegrity Antibacterial Hand Foaming; Skintegrity Antibacterial Hand Foaming with Skin Conditioners; Skinvisible Antiseptic Skin Cleanser; Smile Shower Soap; Smith and Johnson Antibacterial; Snow Drop Antibacterial Foaming Hand Wash; Soapy Sudz; Soft Care Antibacterial Hand Soap; Soft Care Antiseptic Skin Cleanser II; Soft Care Cross-contamination Control IV; Soft Care Foam Antibacterial Hand; Soft Care Foam Antibacterial Hand Soap; Soft Care Foam Select; Soft Care Foam Select Antibacterial Hand; Soft Care Foam Select Antibacterial Soap; Soft Care Foam Select Antibacterial Triclosan; Soft Care Foaming Antibacterial Hand; Soft Care Neutra Germ Antibacterial; Soft Care Neutra Germ Fragrance Free Antibacterial; Soft Care Neutra-Germ Antibacterial Fragrance Free; Soft Care Nutra-germ Antibacterial Lotion Soap; Soft and Silky/Health Guard Antibacterial Hand; Softcide EC; Softone Luxury Foam Antibacterial Skin Cleanser; Softsoap Antibacterial; Softsoap Antibacterial Hand; Softsoap Aquatic Splash Antibacterial with light Moisturizers; Solarcaine First Aid Cream; Solarcaine First Aid Spray; Soothing Foot Spray  -  Liquid; Source Antibacterial Foaming Hand Original; Spa Originals Antibacterial Gold Hand; SpaSoap Liquid Antibacterial; SpaSoap Liquid Antibacterial 2X Ultra; Sparkling Mist Antibacterial Cleanser With Moisturizers; Spatherapy; Spiced Cider Antibacterial Foaming Hand Wash; Spiced Pumpkin Antibacterial Foaming Hand Wash; Spooky Sugar Cookie Antibacterial Foaming Hand Wash; Sport Gel Antiseptic Soap; Spray Antibacterial Soap; Stoko Estesol Gold Antibacterial Hand Wash; Stoko Refresh; Stoko Refresh 4in1 Antibacterial Foam Wash; Stoko Refresh 4in1 Food Handler Foam; Stoko Refresh Antibacterial Foam; Stoko Refresh Antibacterial Foam Soap; Stoko Refresh Antibacterial Foam Wash for 4 In 1 Dispensing System; Stoko Refresh Food Handler Foam; Stoko Sp. Antibacterial Cleanser; Stoko Spray Antibacterial Cleanser; Strawberry & Guava Antibacterial Hand Soap; Studio 35 Spring Morning; Su 990 Germicidal Hand Cleaner 0.5%; Subito Liq 0.3%; Sugar Cookie Antibacterial Foaming Hand Wash; Sugar Cookie Antibacterial Hand Wash; Summer Berry Antibacterial Foaming Hand Wash; Summer Bouquet Antibacterial Foaming Hand Wash; Summer Breeze Antibacterial Foaming Hand Wash; Summer Citrus Antibacterial Foaming Hand Wash; Sun Blossom Antibacterial Foaming Hand Wash; Super Doucet Liq 0.1%; Super-lotion; Surgi Bac Hand Wash 0.5%; Surgi-bac Lotion Soap 0.5%; Sween Antibacterial Moisturizing Lotion; Sweet Fig Antibacterial Foaming Hand Wash; Sweet Fig Antibacterial Hand Wash; Sweet Golden Pear Antibacterial Foaming Hand Wash; Sweet Golden Pear Antibacterial Hand Wash; Sweet Honey Antibacterial Hand Wash; Sweet Olive Leaf Antibacterial Foaming Hand Wash; Sweet Papaya Antibacterial Foaming Hand Wash; Sweet Peaches Antibacterial Foaming Hand Wash; Sweet Pear Antibacterial Foaming Hand Wash; Sweet Red Apple Antibacterial Foaming Hand Wash; Swisher; Sysco Antimicrobial Hand Soap; T-Chem E2 Rated; T36 Medicated Cleanser; TC EnrichedFoam Antibacterial; TC Enrichedlotion Antibacterial Hand Wash; TC SpraySoap; Tabac Original Antiperspirant; Tardan Shp; Tc Antibacterial Lotion Soap; Tc Enriched Foam Antibacterial Hand Wash; Tc Enriched Lotion Antibacterial Hand Wash; Tersaseptic; Theochem Tea Tree Hand and Body Wash; Theochem White Tea Hand and Body Wash; Thera Rx; Therazcream; Tidy Bac Antibacterial Hand Cleanser; Ting Athetes Foot; Ting Cream; TopCare Antibacterial Foaming; Topcare Antibacterial Fresh Pear; Topcare Mandarin; Topco Antibacterial; Tork Foam Antibacterial Soap; Tork Premium; Tork Premium Antibacterial; Total Whitening; Tradition Bacteriostatic Hand Soap (fg40); Transeptic Liq 0.5%; Trick or Treat Antibacterial Foaming Hand Wash; Triclonex T2; Triclosan; Tricloseptic; Triclotrex-B Antibacterial; Triclotrex-B Antibacterial (neutral); Tuscan Lemon Antibacterial Foaming Hand Wash; Tuscan Lemon Antibacterial Hand Wash; Ulta Blood Orange Cranberry Anti-Bacterial Gentle Foaming; Ulta Coconut Cream Anti-Bacterial Deep Cleansing; Ulta Coconut Cream Anti-Bacterial Gentle Foaming; Ulta Fresh Spice Anti-Bacterial Deep Cleansing; Ulta Freshwater Mist Anti-Bacterial Deep Cleansing; Ulta Freshwater Mist Anti-Bacterial Gentle Foaming; Ulta Lavender Woods Anti-Bacterial Deep Cleansing; Ulta Lavender Woods Anti-Bacterial Gentle Foaming; Ulta Mandarin Mint Anti-Bacterial Deep Cleansing; Ulta Mandarin Mint Anti-Bacterial Gentle Foaming; Ulta Nectarine Spice Anti-Bacterial Deep Cleansing; Ulta Nectarine Spice Anti-Bacterial Gentle Foaming; Ulta Pomegranate Lime Anti-Bacterial Deep Cleansing; Ulta Pomegranate Lime Anti-Bacterial Gentle Foaming; Ulta Red Raspberry Anti-Bacterial Deep Cleansing; Ulta Simply Clean Anti-Bacterial Gentle Foaming; Ulta Sparkling Lemon Anti-Bacterial Deep Cleansing; Ulta Sparkling Lemon Anti-Bacterial Gentle Foaming; Ulta Vanilla Sugar Anti-Bacterial Deep Cleansing; Ulta Vanilla Sugar Anti-Bacterial Gentle Foaming; Ultra Blue Antibacterial Foaming Skin Cleanser; Ultra Mild Antibacterial Skin Cleanser; Ultragreen Antibacterial; United Lab Antibac; Up (and) Up Green Apple Scent; Up-87 Lotion Soap/up-87 Savon Lotion; Uphold Plus; Valiant Hand Soap - Lot 0.5%; Valour Antiseptic Hand Cleanser; Vanilla Antibacterial Hand Soap; Vanilla Brown Sugar Scented Antibac; Vanilla Cream; Vanilla Cream Antibacterial Hand Wash; Vanilla Cream and Apple Blossom Antibacterial Moisturizing Hand Sp; Vanilla Cupcake Anti Bacterial Foaming Hand; Vanilla Honey Antibacterial Foaming Hand Wash; Victoria Bay; Vineyard Antibacterial Foaming Hand Wash; Vineyard Grape Antibacterial Hand Wash; Virx; Wegmans; Wegmans Antibacterial; Wegmans Antibacterial Cucumber Melon; Wegmans Antibacterial With Moisturizers; Wegmans Orange Scent; Wegmans Ultra Dishwashing Orange Scent; West Antiseptic Soap; WhiskCare 387; White Lavendar and Mint Antibacterial Gentle Foaming Hand Sp; White Lavender and Mint Antibacterial Moisturizing Hand Sp; White Pearl  -  Lotion - 0.4%; White Tea Antibacterial; Wild Strawberry Antibacterial Hand Wash; Winning Hands Antibacterial; Winning Hands Foaming Antibacterial; Winning Hands Foaming Antibacterial Hand Cleanser; Winning Hands Mild Antibacterial Cleaner; Witchs Brew Antibacterial Foaming Hand Wash; Wood Wyant Qfs Antimicrobial Hand Soap; XtraCare Antibacterial Hand Cleanse Fresh Citrus; XtraCare Antibacterial Hand Cleanse Mountain Spring; XtraCare Antibacterial Hand Cleanse Original; XtraCare Antibacterial Hand Cleanse Strawberry Pomegranate; XtraCare Foaming Facial Cleanser; Zarina Medicated Antiseptic Soap; Zep Acclaim; Zep Anti-Bacterial Foaming Hand Cleaner; Zep Applaud Hand Cleaner; Zep Aspen; Zep Blue Sky Foaming; Zep Cherry Creme; Zep Citrus Blast; Zep Clean Ems; Zep Commercial Antibacterial Hand Soap Liquid Refill; Zep Commercial Antibacterial Pear; Zep Evening Calm; Zep Lemongrass; Zep Lemongrass Hand Soap - Antibacterial; Zep Mango Foaming; Zep Morning Snow; Zep Pear Anti-Bacterial; Zep Professional Healthcare Worker; Zep Professional Mild Antimicrobial Hand Cleaner; Zep Professional Tranquil Meadows; Zep Professional Z-Verdant Foaming; Zep Provisions Pot and Pan Premium; Zep Provisions Pot and Pan Premium FF; Zep Summer Rain; Zep Tranquil Meadows; dalan ANTIBACTERIAL deodorant Ocean Breeze regenerating; dalan GOLDEN TROPICS antibacterial deodorant; dalan OCEAN BREEZE antibacterial deodorant; dalan Spring Freshness antibacterial deodorant; dalan Therapy ANTIBACTERIAL and odor neutralizer; eZ Foam Foaming Antibacterial Hand; eZFoam Foaming Antibacterial Moisture Wash; enMotion Antimicrobial Foam; enMotion Antimicrobial with Moisturizers, Fragrance free, dye free; enMotion Antimicrobial with Moisturizers, Tranquil Aloe, Green; enMotion High Frequency Antimicrobial Foam Handwash; freshscent Anti-Bacterial; germstarAntibacterialSoap; kiwi crate Liquid Hand; natural extensions Antibacterial Foaming Hand Wash; natural extensions Antibacterial Liquid Hand Wash

>  <SMILES>  (1) 
OC1=CC(Cl)=CC=C1OC1=C(Cl)C=C(Cl)C=C1

>  <SYNONYMS>  (1) 
2,4,4'-Trichloro-2'-hydroxydiphenyl ether; 5-Chloro-2-(2,4-dichloro-phenoxy)-phenol

$$$$
