
     RDKit          2D

 91 92  0  0  1  0  0  0  0  0999 V2000
   -1.4289    2.4750    0.0000 C   0  0  0  0  0  0  0  0  0  0  0  0
    0.7144    6.1875    0.0000 C   0  0  0  0  0  0  0  0  0  0  0  0
   -2.1434    2.8875    0.0000 C   0  0  0  0  0  0  0  0  0  0  0  0
    0.0000    6.6000    0.0000 C   0  0  0  0  0  0  0  0  0  0  0  0
    0.7144    2.8875    0.0000 C   0  0  0  0  0  0  0  0  0  0  0  0
    1.4289    3.3000    0.0000 C   0  0  0  0  0  0  0  0  0  0  0  0
    1.4289    7.4250    0.0000 C   0  0  0  0  0  0  0  0  0  0  0  0
    4.2868    6.6000    0.0000 C   0  0  0  0  0  0  0  0  0  0  0  0
    4.2868    4.1250    0.0000 C   0  0  0  0  0  0  0  0  0  0  0  0
    0.0000    2.4750    0.0000 C   0  0  0  0  0  0  0  0  0  0  0  0
    0.7144    5.3625    0.0000 C   0  0  0  0  0  0  0  0  0  0  0  0
    2.1434    3.7125    0.0000 C   0  0  0  0  0  0  0  0  0  0  0  0
    2.1434    7.0125    0.0000 C   0  0  0  0  0  0  0  0  0  0  0  0
    3.5723    6.1875    0.0000 C   0  0  0  0  0  0  0  0  0  0  0  0
    3.5723    4.5375    0.0000 C   0  0  0  0  0  0  0  0  0  0  0  0
   -0.7144    2.8875    0.0000 C   0  0  0  0  0  0  0  0  0  0  0  0
    1.4289    2.4750    0.0000 C   0  0  0  0  0  0  0  0  0  0  0  0
    1.4289    4.9500    0.0000 C   0  0  0  0  0  0  0  0  0  0  0  0
    2.8578    3.3000    0.0000 C   0  0  0  0  0  0  0  0  0  0  0  0
    2.1434    6.1875    0.0000 C   0  0  0  0  0  0  0  0  0  0  0  0
    3.5723    7.0125    0.0000 C   0  0  0  0  0  0  0  0  0  0  0  0
    4.2868    4.9500    0.0000 C   0  0  0  0  0  0  0  0  0  0  0  0
    0.7144    4.5375    0.0000 C   0  0  0  0  0  0  0  0  0  0  0  0
   -0.7144    5.3625    0.0000 C   0  0  0  0  0  0  0  0  0  0  0  0
    2.1434    8.6625    0.0000 C   0  0  0  0  0  0  0  0  0  0  0  0
   -2.8578    2.4750    0.0000 N   0  0  0  0  0  0  0  0  0  0  0  0
    0.0000    1.6500    0.0000 N   0  0  0  0  0  0  0  0  0  0  0  0
   -1.4289    4.9500    0.0000 N   0  0  0  0  0  0  0  0  0  0  0  0
    2.1434    9.4875    0.0000 N   0  0  0  0  0  0  0  0  0  0  0  0
   -0.7144    6.1875    0.0000 N   0  0  0  0  0  0  0  0  0  0  0  0
    0.7144    3.7125    0.0000 N   0  0  0  0  0  0  0  0  0  0  0  0
    1.4289    8.2500    0.0000 N   0  0  0  0  0  0  0  0  0  0  0  0
    2.1434    2.8875    0.0000 N   0  0  0  0  0  0  0  0  0  0  0  0
    2.8578    7.4250    0.0000 N   0  0  0  0  0  0  0  0  0  0  0  0
    3.5723    3.7125    0.0000 N   0  0  0  0  0  0  0  0  0  0  0  0
    4.2868    5.7750    0.0000 N   0  0  0  0  0  0  0  0  0  0  0  0
    0.0000    4.9500    0.0000 N   0  0  0  0  0  0  0  0  0  0  0  0
    1.4289    5.7750    0.0000 N   0  0  0  0  0  0  0  0  0  0  0  0
    5.0012    6.1875    0.0000 O   0  0  0  0  0  0  0  0  0  0  0  0
    4.2868    3.3000    0.0000 O   0  0  0  0  0  0  0  0  0  0  0  0
   -0.7144    3.7125    0.0000 O   0  0  0  0  0  0  0  0  0  0  0  0
    1.4289    1.6500    0.0000 O   0  0  0  0  0  0  0  0  0  0  0  0
    2.8578    2.4750    0.0000 O   0  0  0  0  0  0  0  0  0  0  0  0
    2.8578    5.7750    0.0000 O   0  0  0  0  0  0  0  0  0  0  0  0
    4.2868    7.4250    0.0000 O   0  0  0  0  0  0  0  0  0  0  0  0
    5.0012    4.5375    0.0000 O   0  0  0  0  0  0  0  0  0  0  0  0
   -0.1060    4.4512    0.0000 O   0  0  0  0  0  0  0  0  0  0  0  0
    2.8578    8.2500    0.0000 O   0  0  0  0  0  0  0  0  0  0  0  0
    0.0000    0.0000    0.0000 H   0  0  0  0  0  0  0  0  0  0  0  0
    0.0000    0.0000    0.0000 H   0  0  0  0  0  0  0  0  0  0  0  0
    0.0000    0.0000    0.0000 H   0  0  0  0  0  0  0  0  0  0  0  0
    0.0000    0.0000    0.0000 H   0  0  0  0  0  0  0  0  0  0  0  0
    0.0000    0.0000    0.0000 H   0  0  0  0  0  0  0  0  0  0  0  0
    0.0000    0.0000    0.0000 H   0  0  0  0  0  0  0  0  0  0  0  0
    0.0000    0.0000    0.0000 H   0  0  0  0  0  0  0  0  0  0  0  0
    0.0000    0.0000    0.0000 H   0  0  0  0  0  0  0  0  0  0  0  0
    0.0000    0.0000    0.0000 H   0  0  0  0  0  0  0  0  0  0  0  0
    0.0000    0.0000    0.0000 H   0  0  0  0  0  0  0  0  0  0  0  0
    0.0000    0.0000    0.0000 H   0  0  0  0  0  0  0  0  0  0  0  0
    0.0000    0.0000    0.0000 H   0  0  0  0  0  0  0  0  0  0  0  0
    0.0000    0.0000    0.0000 H   0  0  0  0  0  0  0  0  0  0  0  0
    0.0000    0.0000    0.0000 H   0  0  0  0  0  0  0  0  0  0  0  0
    0.0000    0.0000    0.0000 H   0  0  0  0  0  0  0  0  0  0  0  0
    0.0000    0.0000    0.0000 H   0  0  0  0  0  0  0  0  0  0  0  0
    0.0000    0.0000    0.0000 H   0  0  0  0  0  0  0  0  0  0  0  0
    0.0000    0.0000    0.0000 H   0  0  0  0  0  0  0  0  0  0  0  0
    0.0000    0.0000    0.0000 H   0  0  0  0  0  0  0  0  0  0  0  0
    0.0000    0.0000    0.0000 H   0  0  0  0  0  0  0  0  0  0  0  0
    0.0000    0.0000    0.0000 H   0  0  0  0  0  0  0  0  0  0  0  0
    0.0000    0.0000    0.0000 H   0  0  0  0  0  0  0  0  0  0  0  0
    0.0000    0.0000    0.0000 H   0  0  0  0  0  0  0  0  0  0  0  0
    0.0000    0.0000    0.0000 H   0  0  0  0  0  0  0  0  0  0  0  0
    0.0000    0.0000    0.0000 H   0  0  0  0  0  0  0  0  0  0  0  0
    0.0000    0.0000    0.0000 H   0  0  0  0  0  0  0  0  0  0  0  0
    0.0000    0.0000    0.0000 H   0  0  0  0  0  0  0  0  0  0  0  0
    0.0000    0.0000    0.0000 H   0  0  0  0  0  0  0  0  0  0  0  0
    0.0000    0.0000    0.0000 H   0  0  0  0  0  0  0  0  0  0  0  0
    0.0000    0.0000    0.0000 H   0  0  0  0  0  0  0  0  0  0  0  0
    0.0000    0.0000    0.0000 H   0  0  0  0  0  0  0  0  0  0  0  0
    0.0000    0.0000    0.0000 H   0  0  0  0  0  0  0  0  0  0  0  0
    0.0000    0.0000    0.0000 H   0  0  0  0  0  0  0  0  0  0  0  0
    0.0000    0.0000    0.0000 H   0  0  0  0  0  0  0  0  0  0  0  0
    0.0000    0.0000    0.0000 H   0  0  0  0  0  0  0  0  0  0  0  0
    0.0000    0.0000    0.0000 H   0  0  0  0  0  0  0  0  0  0  0  0
    0.0000    0.0000    0.0000 H   0  0  0  0  0  0  0  0  0  0  0  0
    0.0000    0.0000    0.0000 H   0  0  0  0  0  0  0  0  0  0  0  0
    0.0000    0.0000    0.0000 H   0  0  0  0  0  0  0  0  0  0  0  0
    0.0000    0.0000    0.0000 H   0  0  0  0  0  0  0  0  0  0  0  0
    0.0000    0.0000    0.0000 H   0  0  0  0  0  0  0  0  0  0  0  0
    0.0000    0.0000    0.0000 H   0  0  0  0  0  0  0  0  0  0  0  0
    0.0000    0.0000    0.0000 H   0  0  0  0  0  0  0  0  0  0  0  0
  3  1  1  0
  4  2  1  0
 10  5  1  6
 11  2  1  0
 12  6  1  0
 13  7  2  3
 14  8  1  1
 15  9  1  1
 16  1  1  1
 16 10  1  0
 17  5  1  0
 11 18  1  0
 19 12  1  0
 20 13  1  0
 21 14  1  0
 22 15  1  0
 23 18  1  0
 26  3  1  0
 10 27  1  0
 28 24  2  3
 29 25  2  3
 30  4  1  0
 30 24  1  0
 31  6  1  0
 31 23  2  0
 32  7  1  0
 32 25  1  0
 12 33  1  1
 33 17  2  3
 34 13  1  0
 34 21  2  0
 35 15  1  0
 35 19  2  0
 36 14  1  0
 36 22  2  0
 37 11  1  0
 37 24  1  0
 38 18  1  0
 38 20  2  0
 39  8  1  0
 40  9  1  0
 16 41  1  0
 17 42  1  0
 19 43  1  0
 20 44  1  0
 45 21  1  0
 22 46  1  0
 47 23  1  0
 48 25  1  0
  1 49  1  0
  1 50  1  0
  2 51  1  0
  2 52  1  0
  3 53  1  0
  3 54  1  0
  4 55  1  0
  4 56  1  0
  5 57  1  0
  5 58  1  0
  6 59  1  0
  6 60  1  0
  7 61  1  0
  8 62  1  0
  8 63  1  0
  9 64  1  0
  9 65  1  0
 10 66  1  0
 11 67  1  1
 12 68  1  0
 14 69  1  0
 15 70  1  0
 16 71  1  0
 18 72  1  1
 26 73  1  0
 26 74  1  0
 27 75  1  0
 27 76  1  0
 28 77  1  0
 29 78  1  0
 30 79  1  0
 32 80  1  0
 37 81  1  0
 39 82  1  0
 40 83  1  0
 41 84  1  0
 42 85  1  0
 43 86  1  0
 44 87  1  0
 45 88  1  0
 46 89  1  0
 47 90  1  0
 48 91  1  0
M  END
>  <ALOGPS_LOGP>  (1) 
-1.42

>  <ALOGPS_LOGS>  (1) 
-3.65

>  <ALOGPS_SOLUBILITY>  (1) 
1.55e-01 g/l

>  <DATABASE_ID>  (1) 
DB08993

>  <DATABASE_NAME>  (1) 
drugbank

>  <DRUGBANK_ID>  (1) 
DB08993

>  <DRUG_GROUPS>  (1) 
approved

>  <EXACT_MASS>  (1) 
685.325584661

>  <FORMULA>  (1) 
C25H43N13O10

>  <GENERIC_NAME>  (1) 
Enviomycin

>  <INCHI_IDENTIFIER>  (1) 
InChI=1S/C25H43N13O10/c26-3-1-16(41)10(27)5-17(42)33-12-6-31-23(47)18(11-2-4-30-24(28)37-11)38-20(44)13(7-32-25(29)48)34-21(45)14(8-39)36-22(46)15(9-40)35-19(12)43/h7,10-12,14-16,18,39-41H,1-6,8-9,26-27H2,(H,31,47)(H,33,42)(H,34,45)(H,35,43)(H,36,46)(H,38,44)(H3,28,30,37)(H3,29,32,48)/b13-7-/t10-,11-,12+,14+,15+,16-,18+/m1/s1

>  <INCHI_KEY>  (1) 
HPWIIERXAFODPP-GHBBWTPBSA-N

>  <INTERNATIONAL_BRANDS>  (1) 
Tuberactin

>  <JCHEM_ACCEPTOR_COUNT>  (1) 
23

>  <JCHEM_ATOM_COUNT>  (1) 
91

>  <JCHEM_AVERAGE_POLARIZABILITY>  (1) 
65.21043111931252

>  <JCHEM_BIOAVAILABILITY>  (1) 
0

>  <JCHEM_DONOR_COUNT>  (1) 
17

>  <JCHEM_FORMAL_CHARGE>  (1) 
0

>  <JCHEM_GHOSE_FILTER>  (1) 
0

>  <JCHEM_IUPAC>  (1) 
(3R,4R)-3,6-diamino-4-hydroxy-N-[(3S,6Z,9S,12S,15S)-2,5,8,11,14-pentahydroxy-6-{[(C-hydroxycarbonimidoyl)amino]methylidene}-9,12-bis(hydroxymethyl)-3-[(4R)-2-imino-1,3-diazinan-4-yl]-1,4,7,10,13-pentaazacyclohexadeca-1,4,7,10,13-pentaen-15-yl]hexanimidic acid

>  <JCHEM_LOGP>  (1) 
-9.580840802239267

>  <JCHEM_MDDR_LIKE_RULE>  (1) 
0

>  <JCHEM_NUMBER_OF_RINGS>  (1) 
2

>  <JCHEM_PHYSIOLOGICAL_CHARGE>  (1) 
3

>  <JCHEM_PKA>  (1) 
3.0040736920601545

>  <JCHEM_PKA_STRONGEST_ACIDIC>  (1) 
2.502554156358472

>  <JCHEM_PKA_STRONGEST_BASIC>  (1) 
11.737491247178113

>  <JCHEM_POLAR_SURFACE_AREA>  (1) 
412.29000000000013

>  <JCHEM_REFRACTIVITY>  (1) 
186.22490000000008

>  <JCHEM_ROTATABLE_BOND_COUNT>  (1) 
10

>  <JCHEM_RULE_OF_FIVE>  (1) 
0

>  <JCHEM_TRADITIONAL_IUPAC>  (1) 
(3R,4R)-3,6-diamino-4-hydroxy-N-[(3S,6Z,9S,12S,15S)-2,5,8,11,14-pentahydroxy-6-[(C-hydroxycarbonimidoylamino)methylidene]-9,12-bis(hydroxymethyl)-3-[(4R)-2-imino-1,3-diazinan-4-yl]-1,4,7,10,13-pentaazacyclohexadeca-1,4,7,10,13-pentaen-15-yl]hexanimidic acid

>  <JCHEM_VEBER_RULE>  (1) 
0

>  <MOLECULAR_WEIGHT>  (1) 
685.69

>  <SALTS>  (1) 
Enviomycin Sulfate

>  <SMILES>  (1) 
[H]\C(NC(O)=N)=C1\N=C(O)[C@]([H])(CO)N=C(O)[C@]([H])(CO)N=C(O)[C@]([H])(CN=C(O)[C@@]([H])(N=C1O)[C@@]1([H])CCNC(=N)N1)N=C(O)C[C@@]([H])(N)[C@]([H])(O)CCN

>  <SYNONYMS>  (1) 
Enviomicina; Enviomycin; Enviomycine; Enviomycinum; Tuberactinomycin N 

$$$$
