
     RDKit          2D

 79 82  0  0  0  0  0  0  0  0999 V2000
   -4.6010   -1.0247    0.0000 C   0  0  0  0  0  0  0  0  0  0  0  0
   -4.6010   -1.8613    0.0000 C   0  0  0  0  0  0  0  0  0  0  0  0
   -3.8899   -2.2795    0.0000 C   0  0  0  0  0  0  0  0  0  0  0  0
   -3.1788   -1.8613    0.0000 C   0  0  0  0  0  0  0  0  0  0  0  0
   -3.1788   -1.0247    0.0000 C   0  0  0  0  0  0  0  0  0  0  0  0
   -3.8899   -0.6065    0.0000 C   0  0  0  0  0  0  0  0  0  0  0  0
   -2.4677   -2.2795    0.0000 C   0  0  0  0  0  0  0  0  0  0  0  0
   -1.7567   -1.8613    0.0000 C   0  0  0  0  0  0  0  0  0  0  0  0
   -1.7567   -1.0247    0.0000 C   0  0  0  0  0  0  0  0  0  0  0  0
   -2.4677   -0.6065    0.0000 C   0  0  0  0  0  0  0  0  0  0  0  0
   -1.0456   -0.6065    0.0000 C   0  0  0  0  0  0  0  0  0  0  0  0
   -1.0456    0.1882    0.0000 C   0  0  0  0  0  0  0  0  0  0  0  0
   -1.7567    0.6065    0.0000 C   0  0  0  0  0  0  0  0  0  0  0  0
   -2.4677    0.1882    0.0000 C   0  0  0  0  0  0  0  0  0  0  0  0
    0.3764   -0.6065    0.0000 C   0  0  0  0  0  0  0  0  0  0  0  0
    0.3764    0.1882    0.0000 C   0  0  0  0  0  0  0  0  0  0  0  0
   -0.3346    0.6065    0.0000 C   0  0  0  0  0  0  0  0  0  0  0  0
   -3.1788   -0.1882    0.0000 C   0  0  0  0  0  0  0  0  0  0  0  0
   -1.0875   -2.2377    0.0000 O   0  0  0  0  0  0  0  0  0  0  0  0
   -1.0456    1.0247    0.0000 C   0  0  0  0  0  0  0  0  0  0  0  0
   -0.3346    1.4430    0.0000 C   0  0  0  0  0  0  0  0  0  0  0  0
   -5.3538   -2.2795    0.0000 O   0  0  0  0  0  0  0  0  0  0  0  0
   -1.0456    1.8613    0.0000 C   0  0  0  0  0  0  0  0  0  0  0  0
    0.3764    1.8613    0.0000 C   0  0  0  0  0  0  0  0  0  0  0  0
    1.0875    1.4430    0.0000 C   0  0  0  0  0  0  0  0  0  0  0  0
    1.7985    1.8613    0.0000 C   0  0  0  0  0  0  0  0  0  0  0  0
    2.5096    1.4430    0.0000 N   0  0  0  0  0  0  0  0  0  0  0  0
    3.2206    1.8613    0.0000 C   0  0  0  0  0  0  0  0  0  0  0  0
    3.9317    1.4430    0.0000 C   0  0  0  0  0  0  0  0  0  0  0  0
    4.6427    1.8613    0.0000 S   0  0  0  0  0  0  0  0  0  0  0  0
    1.7985    2.6559    0.0000 O   0  0  0  0  0  0  0  0  0  0  0  0
    5.3538    2.2795    0.0000 O   0  0  0  0  0  0  0  0  0  0  0  0
    4.2245    2.5723    0.0000 O   0  0  0  0  0  0  0  0  0  0  0  0
    5.0610    1.1502    0.0000 O   0  0  0  0  0  0  0  0  0  0  0  0
    0.0000    0.0000    0.0000 H   0  0  0  0  0  0  0  0  0  0  0  0
    0.0000    0.0000    0.0000 H   0  0  0  0  0  0  0  0  0  0  0  0
    0.0000    0.0000    0.0000 H   0  0  0  0  0  0  0  0  0  0  0  0
    0.0000    0.0000    0.0000 H   0  0  0  0  0  0  0  0  0  0  0  0
    0.0000    0.0000    0.0000 H   0  0  0  0  0  0  0  0  0  0  0  0
    0.0000    0.0000    0.0000 H   0  0  0  0  0  0  0  0  0  0  0  0
    0.0000    0.0000    0.0000 H   0  0  0  0  0  0  0  0  0  0  0  0
    0.0000    0.0000    0.0000 H   0  0  0  0  0  0  0  0  0  0  0  0
    0.0000    0.0000    0.0000 H   0  0  0  0  0  0  0  0  0  0  0  0
    0.0000    0.0000    0.0000 H   0  0  0  0  0  0  0  0  0  0  0  0
    0.0000    0.0000    0.0000 H   0  0  0  0  0  0  0  0  0  0  0  0
    0.0000    0.0000    0.0000 H   0  0  0  0  0  0  0  0  0  0  0  0
    0.0000    0.0000    0.0000 H   0  0  0  0  0  0  0  0  0  0  0  0
    0.0000    0.0000    0.0000 H   0  0  0  0  0  0  0  0  0  0  0  0
    0.0000    0.0000    0.0000 H   0  0  0  0  0  0  0  0  0  0  0  0
    0.0000    0.0000    0.0000 H   0  0  0  0  0  0  0  0  0  0  0  0
    0.0000    0.0000    0.0000 H   0  0  0  0  0  0  0  0  0  0  0  0
    0.0000    0.0000    0.0000 H   0  0  0  0  0  0  0  0  0  0  0  0
    0.0000    0.0000    0.0000 H   0  0  0  0  0  0  0  0  0  0  0  0
    0.0000    0.0000    0.0000 H   0  0  0  0  0  0  0  0  0  0  0  0
    0.0000    0.0000    0.0000 H   0  0  0  0  0  0  0  0  0  0  0  0
    0.0000    0.0000    0.0000 H   0  0  0  0  0  0  0  0  0  0  0  0
    0.0000    0.0000    0.0000 H   0  0  0  0  0  0  0  0  0  0  0  0
    0.0000    0.0000    0.0000 H   0  0  0  0  0  0  0  0  0  0  0  0
    0.0000    0.0000    0.0000 H   0  0  0  0  0  0  0  0  0  0  0  0
    0.0000    0.0000    0.0000 H   0  0  0  0  0  0  0  0  0  0  0  0
    0.0000    0.0000    0.0000 H   0  0  0  0  0  0  0  0  0  0  0  0
    0.0000    0.0000    0.0000 H   0  0  0  0  0  0  0  0  0  0  0  0
    0.0000    0.0000    0.0000 H   0  0  0  0  0  0  0  0  0  0  0  0
    0.0000    0.0000    0.0000 H   0  0  0  0  0  0  0  0  0  0  0  0
    0.0000    0.0000    0.0000 H   0  0  0  0  0  0  0  0  0  0  0  0
    0.0000    0.0000    0.0000 H   0  0  0  0  0  0  0  0  0  0  0  0
    0.0000    0.0000    0.0000 H   0  0  0  0  0  0  0  0  0  0  0  0
    0.0000    0.0000    0.0000 H   0  0  0  0  0  0  0  0  0  0  0  0
    0.0000    0.0000    0.0000 H   0  0  0  0  0  0  0  0  0  0  0  0
    0.0000    0.0000    0.0000 H   0  0  0  0  0  0  0  0  0  0  0  0
    0.0000    0.0000    0.0000 H   0  0  0  0  0  0  0  0  0  0  0  0
    0.0000    0.0000    0.0000 H   0  0  0  0  0  0  0  0  0  0  0  0
    0.0000    0.0000    0.0000 H   0  0  0  0  0  0  0  0  0  0  0  0
    0.0000    0.0000    0.0000 H   0  0  0  0  0  0  0  0  0  0  0  0
    0.0000    0.0000    0.0000 H   0  0  0  0  0  0  0  0  0  0  0  0
    0.0000    0.0000    0.0000 H   0  0  0  0  0  0  0  0  0  0  0  0
    0.0000    0.0000    0.0000 H   0  0  0  0  0  0  0  0  0  0  0  0
    0.0000    0.0000    0.0000 H   0  0  0  0  0  0  0  0  0  0  0  0
    0.0000    0.0000    0.0000 H   0  0  0  0  0  0  0  0  0  0  0  0
  1  2  1  0
  2  3  1  0
  3  4  1  0
  4  5  1  0
  5  6  1  0
  1  6  1  0
  4  7  1  0
  7  8  1  0
  8  9  1  0
  9 10  1  0
  5 10  1  0
  9 11  1  0
 11 12  1  0
 12 13  1  0
 13 14  1  0
 10 14  1  0
 11 15  1  0
 15 16  1  0
 16 17  1  0
 12 17  1  0
  5 18  1  1
  8 19  1  1
 12 20  1  1
 17 21  1  0
  2 22  1  1
 21 23  1  1
 21 24  1  0
 24 25  1  0
 25 26  1  0
 26 27  1  0
 27 28  1  0
 28 29  1  0
 29 30  1  0
 26 31  2  0
 30 32  1  0
 30 33  2  0
 30 34  2  0
  1 35  1  0
  1 36  1  0
  2 37  1  0
  3 38  1  0
  3 39  1  0
  4 40  1  1
  6 41  1  0
  6 42  1  0
  7 43  1  0
  7 44  1  0
  8 45  1  0
  9 46  1  1
 10 47  1  6
 11 48  1  6
 13 49  1  0
 13 50  1  0
 14 51  1  0
 14 52  1  0
 15 53  1  0
 15 54  1  0
 16 55  1  0
 16 56  1  0
 17 57  1  6
 18 58  1  0
 18 59  1  0
 18 60  1  0
 19 61  1  0
 20 62  1  0
 20 63  1  0
 20 64  1  0
 21 65  1  0
 22 66  1  0
 23 67  1  0
 23 68  1  0
 23 69  1  0
 24 70  1  0
 24 71  1  0
 25 72  1  0
 25 73  1  0
 27 74  1  0
 28 75  1  0
 28 76  1  0
 29 77  1  0
 29 78  1  0
 32 79  1  0
M  END
>  <ALOGPS_LOGP>  (1) 
1.38

>  <ALOGPS_LOGS>  (1) 
-4.82

>  <ALOGPS_SOLUBILITY>  (1) 
7.48e-03 g/l

>  <DATABASE_ID>  (1) 
DB08834

>  <DATABASE_NAME>  (1) 
drugbank

>  <DRUGBANK_ID>  (1) 
DB08834

>  <DRUG_GROUPS>  (1) 
approved; investigational

>  <EXACT_MASS>  (1) 
499.296759347

>  <FORMULA>  (1) 
C26H45NO6S

>  <GENERIC_NAME>  (1) 
Tauroursodeoxycholic acid

>  <INCHI_IDENTIFIER>  (1) 
InChI=1S/C26H45NO6S/c1-16(4-7-23(30)27-12-13-34(31,32)33)19-5-6-20-24-21(9-11-26(19,20)3)25(2)10-8-18(28)14-17(25)15-22(24)29/h16-22,24,28-29H,4-15H2,1-3H3,(H,27,30)(H,31,32,33)/t16-,17+,18-,19-,20+,21+,22+,24+,25+,26-/m1/s1

>  <INCHI_KEY>  (1) 
BHTRKEVKTKCXOH-LBSADWJPSA-N

>  <INTERNATIONAL_BRANDS>  (1) 
Tauro; Taurolite

>  <JCHEM_ACCEPTOR_COUNT>  (1) 
6

>  <JCHEM_ATOM_COUNT>  (1) 
79

>  <JCHEM_AVERAGE_POLARIZABILITY>  (1) 
56.754573991580266

>  <JCHEM_BIOAVAILABILITY>  (1) 
1

>  <JCHEM_DONOR_COUNT>  (1) 
4

>  <JCHEM_FORMAL_CHARGE>  (1) 
0

>  <JCHEM_GHOSE_FILTER>  (1) 
0

>  <JCHEM_IUPAC>  (1) 
2-[(4R)-4-[(1S,2S,5R,7S,9S,10R,11S,14R,15R)-5,9-dihydroxy-2,15-dimethyltetracyclo[8.7.0.0²,⁷.0¹¹,¹⁵]heptadecan-14-yl]pentanamido]ethane-1-sulfonic acid

>  <JCHEM_LOGP>  (1) 
1.0968020386753499

>  <JCHEM_MDDR_LIKE_RULE>  (1) 
1

>  <JCHEM_NUMBER_OF_RINGS>  (1) 
4

>  <JCHEM_PHYSIOLOGICAL_CHARGE>  (1) 
-1

>  <JCHEM_PKA>  (1) 
15.47697536728532

>  <JCHEM_PKA_STRONGEST_ACIDIC>  (1) 
-0.8004715356003853

>  <JCHEM_PKA_STRONGEST_BASIC>  (1) 
-0.3160397423134701

>  <JCHEM_POLAR_SURFACE_AREA>  (1) 
123.93

>  <JCHEM_REFRACTIVITY>  (1) 
130.67899999999997

>  <JCHEM_ROTATABLE_BOND_COUNT>  (1) 
7

>  <JCHEM_RULE_OF_FIVE>  (1) 
1

>  <JCHEM_TRADITIONAL_IUPAC>  (1) 
tauroursodeoxycholic acid

>  <JCHEM_VEBER_RULE>  (1) 
0

>  <MOLECULAR_WEIGHT>  (1) 
499.71

>  <SMILES>  (1) 
[H][C@@]12CC[C@H]([C@H](C)CCC(=O)NCCS(O)(=O)=O)[C@@]1(C)CC[C@@]1([H])[C@@]2([H])[C@@H](O)C[C@]2([H])C[C@H](O)CC[C@]12C

>  <SYNONYMS>  (1) 
Tauroursodeoxycholate; Tauroursodesoxycholic acid; TUDCA; Ursodeoxycholyltaurine

$$$$
