 
     RDKit          2D

 48 50  0  0  0  0  0  0  0  0999 V2000
    6.8476  -12.0865    0.0000 C   0  0  0  0  0  0  0  0  0  0  0  0
    7.0951  -11.3027    0.0000 N   0  0  0  0  0  0  0  0  0  0  0  0
    7.9202  -11.3027    0.0000 C   0  0  0  0  0  0  0  0  0  0  0  0
    8.1677  -12.0865    0.0000 N   0  0  0  0  0  0  0  0  0  0  0  0
    7.5077  -12.5815    0.0000 C   0  0  0  0  0  0  0  0  0  0  0  0
    8.9514  -12.3340    0.0000 C   0  0  0  0  0  0  0  0  0  0  0  0
    8.9514  -13.1590    0.0000 C   0  0  0  0  0  0  0  0  0  0  0  0
    9.6527  -11.9215    0.0000 C   0  0  0  0  0  0  0  0  0  0  0  0
   10.3952  -12.3340    0.0000 C   0  0  0  0  0  0  0  0  0  0  0  0
   10.3952  -13.1590    0.0000 C   0  0  0  0  0  0  0  0  0  0  0  0
    9.6527  -13.5715    0.0000 C   0  0  0  0  0  0  0  0  0  0  0  0
    7.5077  -13.4065    0.0000 O   0  0  0  0  0  0  0  0  0  0  0  0
   11.0965  -13.5715    0.0000 C   0  0  0  0  0  0  0  0  0  0  0  0
   11.8390  -13.9840    0.0000 N   0  0  0  0  0  0  0  0  0  0  0  0
   11.0965  -11.9215    0.0000 C   0  0  0  0  0  0  0  0  0  0  0  0
   11.8390  -11.5090    0.0000 F   0  0  0  0  0  0  0  0  0  0  0  0
   11.5090  -12.6228    0.0000 F   0  0  0  0  0  0  0  0  0  0  0  0
   10.6840  -11.2202    0.0000 F   0  0  0  0  0  0  0  0  0  0  0  0
    8.4079  -10.6373    0.0000 S   0  0  0  0  0  0  0  0  0  0  0  0
    6.1332  -11.6740    0.0000 C   0  0  0  0  0  0  0  0  0  0  0  0
    6.3931  -12.7750    0.0000 C   0  0  0  0  0  0  0  0  0  0  0  0
    6.6074  -10.6373    0.0000 C   0  0  0  0  0  0  0  0  0  0  0  0
    6.9999   -9.9210    0.0000 C   0  0  0  0  0  0  0  0  0  0  0  0
    6.5708   -9.2576    0.0000 C   0  0  0  0  0  0  0  0  0  0  0  0
    5.7461   -9.2355    0.0000 C   0  0  0  0  0  0  0  0  0  0  0  0
    5.3541   -9.9525    0.0000 C   0  0  0  0  0  0  0  0  0  0  0  0
    5.7831  -10.6572    0.0000 C   0  0  0  0  0  0  0  0  0  0  0  0
    5.3338   -8.5186    0.0000 C   0  0  0  0  0  0  0  0  0  0  0  0
    4.4966   -8.5581    0.0000 N   0  0  0  0  0  0  0  0  0  0  0  0
    4.0420   -7.8503    0.0000 C   0  0  0  0  0  0  0  0  0  0  0  0
    5.7186   -7.8159    0.0000 O   0  0  0  0  0  0  0  0  0  0  0  0
    6.9795   -8.5304    0.0000 F   0  0  0  0  0  0  0  0  0  0  0  0
    0.0000    0.0000    0.0000 H   0  0  0  0  0  0  0  0  0  0  0  0
    0.0000    0.0000    0.0000 H   0  0  0  0  0  0  0  0  0  0  0  0
    0.0000    0.0000    0.0000 H   0  0  0  0  0  0  0  0  0  0  0  0
    0.0000    0.0000    0.0000 H   0  0  0  0  0  0  0  0  0  0  0  0
    0.0000    0.0000    0.0000 H   0  0  0  0  0  0  0  0  0  0  0  0
    0.0000    0.0000    0.0000 H   0  0  0  0  0  0  0  0  0  0  0  0
    0.0000    0.0000    0.0000 H   0  0  0  0  0  0  0  0  0  0  0  0
    0.0000    0.0000    0.0000 H   0  0  0  0  0  0  0  0  0  0  0  0
    0.0000    0.0000    0.0000 H   0  0  0  0  0  0  0  0  0  0  0  0
    0.0000    0.0000    0.0000 H   0  0  0  0  0  0  0  0  0  0  0  0
    0.0000    0.0000    0.0000 H   0  0  0  0  0  0  0  0  0  0  0  0
    0.0000    0.0000    0.0000 H   0  0  0  0  0  0  0  0  0  0  0  0
    0.0000    0.0000    0.0000 H   0  0  0  0  0  0  0  0  0  0  0  0
    0.0000    0.0000    0.0000 H   0  0  0  0  0  0  0  0  0  0  0  0
    0.0000    0.0000    0.0000 H   0  0  0  0  0  0  0  0  0  0  0  0
    0.0000    0.0000    0.0000 H   0  0  0  0  0  0  0  0  0  0  0  0
  1  2  1  0
  2  3  1  0
  3  4  1  0
  4  5  1  0
  1  5  1  0
  4  6  1  0
  7  6  2  0
  8  9  2  0
  9 10  1  0
 10 11  2  0
  7 11  1  0
  6  8  1  0
  5 12  2  0
 10 13  1  0
 13 14  3  0
  9 15  1  0
 15 16  1  0
 15 17  1  0
 15 18  1  0
  3 19  2  0
  1 20  1  0
  1 21  1  0
  2 22  1  0
 22 23  2  0
 23 24  1  0
 24 25  2  0
 25 26  1  0
 26 27  2  0
 22 27  1  0
 25 28  1  0
 28 29  1  0
 29 30  1  0
 28 31  2  0
 24 32  1  0
  7 33  1  0
  8 34  1  0
 11 35  1  0
 20 36  1  0
 20 37  1  0
 20 38  1  0
 21 39  1  0
 21 40  1  0
 21 41  1  0
 23 42  1  0
 26 43  1  0
 27 44  1  0
 29 45  1  0
 30 46  1  0
 30 47  1  0
 30 48  1  0
M  END
>  <ALOGPS_LOGP>  (1) 
3.75

>  <ALOGPS_LOGS>  (1) 
-5.53

>  <ALOGPS_SOLUBILITY>  (1) 
1.36e-03 g/l

>  <DATABASE_ID>  (1) 
DB08899

>  <DATABASE_NAME>  (1) 
drugbank

>  <DRUGBANK_ID>  (1) 
DB08899

>  <DRUG_GROUPS>  (1) 
approved

>  <EXACT_MASS>  (1) 
464.093009286

>  <FORMULA>  (1) 
C21H16F4N4O2S

>  <GENERIC_NAME>  (1) 
Enzalutamide

>  <INCHI_IDENTIFIER>  (1) 
InChI=1S/C21H16F4N4O2S/c1-20(2)18(31)28(12-5-4-11(10-26)15(8-12)21(23,24)25)19(32)29(20)13-6-7-14(16(22)9-13)17(30)27-3/h4-9H,1-3H3,(H,27,30)

>  <INCHI_KEY>  (1) 
WXCXUHSOUPDCQV-UHFFFAOYSA-N

>  <JCHEM_ACCEPTOR_COUNT>  (1) 
3

>  <JCHEM_AVERAGE_POLARIZABILITY>  (1) 
42.71459125557631

>  <JCHEM_BIOAVAILABILITY>  (1) 
1

>  <JCHEM_DONOR_COUNT>  (1) 
1

>  <JCHEM_FORMAL_CHARGE>  (1) 
0

>  <JCHEM_GHOSE_FILTER>  (1) 
1

>  <JCHEM_IUPAC>  (1) 
4-{3-[4-cyano-3-(trifluoromethyl)phenyl]-5,5-dimethyl-4-oxo-2-sulfanylideneimidazolidin-1-yl}-2-fluoro-N-methylbenzamide

>  <JCHEM_LOGP>  (1) 
4.1554112399999985

>  <JCHEM_MDDR_LIKE_RULE>  (1) 
0

>  <JCHEM_NUMBER_OF_RINGS>  (1) 
3

>  <JCHEM_PHYSIOLOGICAL_CHARGE>  (1) 
0

>  <JCHEM_PKA_STRONGEST_ACIDIC>  (1) 
13.054718263662078

>  <JCHEM_PKA_STRONGEST_BASIC>  (1) 
-1.7493837012119338

>  <JCHEM_POLAR_SURFACE_AREA>  (1) 
76.44

>  <JCHEM_REFRACTIVITY>  (1) 
113.4796

>  <JCHEM_ROTATABLE_BOND_COUNT>  (1) 
4

>  <JCHEM_RULE_OF_FIVE>  (1) 
1

>  <JCHEM_TRADITIONAL_IUPAC>  (1) 
4-{3-[4-cyano-3-(trifluoromethyl)phenyl]-5,5-dimethyl-4-oxo-2-sulfanylideneimidazolidin-1-yl}-2-fluoro-N-methylbenzamide

>  <JCHEM_VEBER_RULE>  (1) 
0

>  <MOLECULAR_WEIGHT>  (1) 
464.436

>  <PRODUCTS>  (1) 
Xtandi

>  <SECONDARY_ACCESSION_NUMBERS>  (1) 
DB05094

>  <SMILES>  (1) 
CNC(=O)C1=C(F)C=C(C=C1)N1C(=S)N(C(=O)C1(C)C)C1=CC=C(C#N)C(=C1)C(F)(F)F

$$$$
