
     RDKit          2D

 48 48  0  0  0  0  0  0  0  0999 V2000
    3.1598    5.2519    0.0000 C   0  0  0  0  0  0  0  0  0  0  0  0
    6.8723    4.5375    0.0000 C   0  0  0  0  0  0  0  0  0  0  0  0
    4.8098    2.3940    0.0000 C   0  0  0  0  0  0  0  0  0  0  0  0
    8.5223    3.1085    0.0000 C   0  0  0  0  0  0  0  0  0  0  0  0
    6.0473    1.6796    0.0000 C   0  0  0  0  0  0  0  0  0  0  0  0
    3.5723    4.5375    0.0000 C   0  0  0  0  0  0  0  0  0  0  0  0
    6.0473    4.5375    0.0000 C   0  0  0  0  0  0  0  0  0  0  0  0
    4.3973    3.1085    0.0000 C   0  0  0  0  0  0  0  0  0  0  0  0
    8.1098    0.9651    0.0000 C   0  0  0  0  0  0  0  0  0  0  0  0
    8.5223    1.6796    0.0000 C   0  0  0  0  0  0  0  0  0  0  0  0
    7.2848    0.9651    0.0000 C   0  0  0  0  0  0  0  0  0  0  0  0
    4.3973    4.5375    0.0000 C   0  0  0  0  0  0  0  0  0  0  0  0
    8.1098    2.3940    0.0000 C   0  0  0  0  0  0  0  0  0  0  0  0
    6.8723    1.6796    0.0000 C   0  0  0  0  0  0  0  0  0  0  0  0
    5.6348    3.8230    0.0000 C   0  0  0  0  0  0  0  0  0  0  0  0
    7.2848    2.3940    0.0000 C   0  0  0  0  0  0  0  0  0  0  0  0
    6.0473    3.1085    0.0000 C   0  0  0  0  0  0  0  0  0  0  0  0
    6.8723    3.1085    0.0000 N   0  0  0  0  0  0  0  0  0  0  0  0
    4.8098    3.8230    0.0000 N   0  0  0  0  0  0  0  0  0  0  0  0
    5.6348    2.3940    0.0000 O   0  0  0  0  0  0  0  0  0  0  0  0
    0.0000    0.0000    0.0000 H   0  0  0  0  0  0  0  0  0  0  0  0
    0.0000    0.0000    0.0000 H   0  0  0  0  0  0  0  0  0  0  0  0
    0.0000    0.0000    0.0000 H   0  0  0  0  0  0  0  0  0  0  0  0
    0.0000    0.0000    0.0000 H   0  0  0  0  0  0  0  0  0  0  0  0
    0.0000    0.0000    0.0000 H   0  0  0  0  0  0  0  0  0  0  0  0
    0.0000    0.0000    0.0000 H   0  0  0  0  0  0  0  0  0  0  0  0
    0.0000    0.0000    0.0000 H   0  0  0  0  0  0  0  0  0  0  0  0
    0.0000    0.0000    0.0000 H   0  0  0  0  0  0  0  0  0  0  0  0
    0.0000    0.0000    0.0000 H   0  0  0  0  0  0  0  0  0  0  0  0
    0.0000    0.0000    0.0000 H   0  0  0  0  0  0  0  0  0  0  0  0
    0.0000    0.0000    0.0000 H   0  0  0  0  0  0  0  0  0  0  0  0
    0.0000    0.0000    0.0000 H   0  0  0  0  0  0  0  0  0  0  0  0
    0.0000    0.0000    0.0000 H   0  0  0  0  0  0  0  0  0  0  0  0
    0.0000    0.0000    0.0000 H   0  0  0  0  0  0  0  0  0  0  0  0
    0.0000    0.0000    0.0000 H   0  0  0  0  0  0  0  0  0  0  0  0
    0.0000    0.0000    0.0000 H   0  0  0  0  0  0  0  0  0  0  0  0
    0.0000    0.0000    0.0000 H   0  0  0  0  0  0  0  0  0  0  0  0
    0.0000    0.0000    0.0000 H   0  0  0  0  0  0  0  0  0  0  0  0
    0.0000    0.0000    0.0000 H   0  0  0  0  0  0  0  0  0  0  0  0
    0.0000    0.0000    0.0000 H   0  0  0  0  0  0  0  0  0  0  0  0
    0.0000    0.0000    0.0000 H   0  0  0  0  0  0  0  0  0  0  0  0
    0.0000    0.0000    0.0000 H   0  0  0  0  0  0  0  0  0  0  0  0
    0.0000    0.0000    0.0000 H   0  0  0  0  0  0  0  0  0  0  0  0
    0.0000    0.0000    0.0000 H   0  0  0  0  0  0  0  0  0  0  0  0
    0.0000    0.0000    0.0000 H   0  0  0  0  0  0  0  0  0  0  0  0
    0.0000    0.0000    0.0000 H   0  0  0  0  0  0  0  0  0  0  0  0
    0.0000    0.0000    0.0000 H   0  0  0  0  0  0  0  0  0  0  0  0
    0.0000    0.0000    0.0000 H   0  0  0  0  0  0  0  0  0  0  0  0
  6  1  1  0
  7  2  1  0
  8  3  1  0
 10  9  2  0
 11  9  1  0
 12  6  1  0
 13  4  1  0
 13 10  1  0
 14  5  1  0
 14 11  2  0
 15  7  1  0
 16 13  2  0
 16 14  1  0
 17 15  1  0
 18 16  1  0
 18 17  2  3
 19  8  1  0
 19 12  1  0
 19 15  1  0
 20 17  1  0
  1 21  1  0
  1 22  1  0
  1 23  1  0
  2 24  1  0
  2 25  1  0
  2 26  1  0
  3 27  1  0
  3 28  1  0
  3 29  1  0
  4 30  1  0
  4 31  1  0
  4 32  1  0
  5 33  1  0
  5 34  1  0
  5 35  1  0
  6 36  1  0
  6 37  1  0
  7 38  1  0
  7 39  1  0
  8 40  1  0
  8 41  1  0
  9 42  1  0
 10 43  1  0
 11 44  1  0
 12 45  1  0
 12 46  1  0
 15 47  1  0
 20 48  1  0
M  END
>  <ALOGPS_LOGP>  (1) 
3.66

>  <ALOGPS_LOGS>  (1) 
-3.78

>  <ALOGPS_SOLUBILITY>  (1) 
4.57e-02 g/l

>  <DATABASE_ID>  (1) 
DB08987

>  <DATABASE_NAME>  (1) 
drugbank

>  <DRUGBANK_ID>  (1) 
DB08987

>  <DRUG_GROUPS>  (1) 
approved

>  <EXACT_MASS>  (1) 
276.220163528

>  <FORMULA>  (1) 
C17H28N2O

>  <GENERIC_NAME>  (1) 
Etidocaine

>  <INCHI_IDENTIFIER>  (1) 
InChI=1S/C17H28N2O/c1-6-12-19(8-3)15(7-2)17(20)18-16-13(4)10-9-11-14(16)5/h9-11,15H,6-8,12H2,1-5H3,(H,18,20)

>  <INCHI_KEY>  (1) 
VTUSIVBDOCDNHS-UHFFFAOYSA-N

>  <INTERNATIONAL_BRANDS>  (1) 
Duranest

>  <JCHEM_ACCEPTOR_COUNT>  (1) 
3

>  <JCHEM_AVERAGE_POLARIZABILITY>  (1) 
33.37632767633821

>  <JCHEM_BIOAVAILABILITY>  (1) 
1

>  <JCHEM_DONOR_COUNT>  (1) 
1

>  <JCHEM_FORMAL_CHARGE>  (1) 
0

>  <JCHEM_GHOSE_FILTER>  (1) 
1

>  <JCHEM_IUPAC>  (1) 
N-(2,6-dimethylphenyl)-2-[ethyl(propyl)amino]butanimidic acid

>  <JCHEM_LOGP>  (1) 
2.7762624971551593

>  <JCHEM_MDDR_LIKE_RULE>  (1) 
0

>  <JCHEM_NUMBER_OF_RINGS>  (1) 
1

>  <JCHEM_PHYSIOLOGICAL_CHARGE>  (1) 
1

>  <JCHEM_PKA_STRONGEST_ACIDIC>  (1) 
4.969551356245869

>  <JCHEM_PKA_STRONGEST_BASIC>  (1) 
9.396634471527923

>  <JCHEM_POLAR_SURFACE_AREA>  (1) 
35.83

>  <JCHEM_REFRACTIVITY>  (1) 
88.2266

>  <JCHEM_ROTATABLE_BOND_COUNT>  (1) 
7

>  <JCHEM_RULE_OF_FIVE>  (1) 
1

>  <JCHEM_TRADITIONAL_IUPAC>  (1) 
etidocaine product

>  <JCHEM_VEBER_RULE>  (1) 
1

>  <MOLECULAR_WEIGHT>  (1) 
276.417

>  <SALTS>  (1) 
Etidocaine hydrochloride

>  <SMILES>  (1) 
CCCN(CC)C(CC)C(O)=NC1=C(C)C=CC=C1C

$$$$
