
     RDKit          2D

 90 96  0  0  0  0  0  0  0  0999 V2000
    0.7144   -0.4125    0.0000 C   0  0  0  0  0  0  0  0  0  0  0  0
    0.0000   -0.8250    0.0000 C   0  0  0  0  0  0  0  0  0  0  0  0
   -0.7145   -0.4125    0.0000 C   0  0  0  0  0  0  0  0  0  0  0  0
   -0.7145    0.4125    0.0000 C   0  0  0  0  0  0  0  0  0  0  0  0
    0.0000    0.8249    0.0000 C   0  0  0  0  0  0  0  0  0  0  0  0
    0.7144    0.4125    0.0000 C   0  0  0  0  0  0  0  0  0  0  0  0
    0.0000    1.6500    0.0000 O   0  0  0  0  0  0  0  0  0  0  0  0
    1.4289    0.8249    0.0000 O   0  0  0  0  0  0  0  0  0  0  0  0
    0.0000   -1.6500    0.0000 O   0  0  0  0  0  0  0  0  0  0  0  0
   -1.4289   -0.8250    0.0000 O   0  0  0  0  0  0  0  0  0  0  0  0
    1.4289   -0.8250    0.0000 O   0  0  0  0  0  0  0  0  0  0  0  0
   -1.4289    0.8249    0.0000 O   0  0  0  0  0  0  0  0  0  0  0  0
    1.4289    4.1251    0.0000 N   0  0  0  0  0  0  0  0  0  0  0  0
    1.4289    3.3000    0.0000 C   0  0  0  0  0  0  0  0  0  0  0  0
    0.7144    2.8875    0.0000 C   0  0  0  0  0  0  0  0  0  0  0  0
    0.0000    3.3000    0.0000 C   0  0  0  0  0  0  0  0  0  0  0  0
    0.0000    4.1251    0.0000 C   0  0  0  0  0  0  0  0  0  0  0  0
    0.7144    4.5376    0.0000 C   0  0  0  0  0  0  0  0  0  0  0  0
    0.7144    2.0625    0.0000 C   0  0  0  0  0  0  0  0  0  0  0  0
    1.4289    1.6500    0.0000 O   0  0  0  0  0  0  0  0  0  0  0  0
   -2.8579    3.3000    0.0000 N   0  0  0  0  0  0  0  0  0  0  0  0
   -2.1434    2.8875    0.0000 C   0  0  0  0  0  0  0  0  0  0  0  0
   -2.1434    2.0625    0.0000 C   0  0  0  0  0  0  0  0  0  0  0  0
   -2.8579    1.6500    0.0000 C   0  0  0  0  0  0  0  0  0  0  0  0
   -3.5724    2.0625    0.0000 C   0  0  0  0  0  0  0  0  0  0  0  0
   -3.5724    2.8875    0.0000 C   0  0  0  0  0  0  0  0  0  0  0  0
   -1.4289    1.6500    0.0000 C   0  0  0  0  0  0  0  0  0  0  0  0
   -0.7145    2.0625    0.0000 O   0  0  0  0  0  0  0  0  0  0  0  0
   -4.2869   -0.8250    0.0000 N   0  0  0  0  0  0  0  0  0  0  0  0
   -3.5724   -0.4125    0.0000 C   0  0  0  0  0  0  0  0  0  0  0  0
   -2.8579   -0.8250    0.0000 C   0  0  0  0  0  0  0  0  0  0  0  0
   -2.8579   -1.6500    0.0000 C   0  0  0  0  0  0  0  0  0  0  0  0
   -3.5724   -2.0625    0.0000 C   0  0  0  0  0  0  0  0  0  0  0  0
   -4.2869   -1.6500    0.0000 C   0  0  0  0  0  0  0  0  0  0  0  0
   -2.1434   -0.4125    0.0000 C   0  0  0  0  0  0  0  0  0  0  0  0
   -2.1434    0.4125    0.0000 O   0  0  0  0  0  0  0  0  0  0  0  0
   -1.4289   -4.1251    0.0000 N   0  0  0  0  0  0  0  0  0  0  0  0
   -1.4289   -3.3000    0.0000 C   0  0  0  0  0  0  0  0  0  0  0  0
   -0.7145   -2.8876    0.0000 C   0  0  0  0  0  0  0  0  0  0  0  0
    0.0000   -3.3000    0.0000 C   0  0  0  0  0  0  0  0  0  0  0  0
    0.0000   -4.1251    0.0000 C   0  0  0  0  0  0  0  0  0  0  0  0
   -0.7145   -4.5376    0.0000 C   0  0  0  0  0  0  0  0  0  0  0  0
   -0.7145   -2.0625    0.0000 C   0  0  0  0  0  0  0  0  0  0  0  0
   -1.4289   -1.6500    0.0000 O   0  0  0  0  0  0  0  0  0  0  0  0
    4.2869    0.8249    0.0000 N   0  0  0  0  0  0  0  0  0  0  0  0
    3.5724    0.4125    0.0000 C   0  0  0  0  0  0  0  0  0  0  0  0
    2.8579    0.8249    0.0000 C   0  0  0  0  0  0  0  0  0  0  0  0
    2.8579    1.6500    0.0000 C   0  0  0  0  0  0  0  0  0  0  0  0
    3.5724    2.0625    0.0000 C   0  0  0  0  0  0  0  0  0  0  0  0
    4.2869    1.6500    0.0000 C   0  0  0  0  0  0  0  0  0  0  0  0
    2.1434    0.4125    0.0000 C   0  0  0  0  0  0  0  0  0  0  0  0
    2.1434   -0.4125    0.0000 O   0  0  0  0  0  0  0  0  0  0  0  0
    2.8579   -3.3000    0.0000 N   0  0  0  0  0  0  0  0  0  0  0  0
    2.1434   -2.8876    0.0000 C   0  0  0  0  0  0  0  0  0  0  0  0
    2.1434   -2.0625    0.0000 C   0  0  0  0  0  0  0  0  0  0  0  0
    2.8579   -1.6500    0.0000 C   0  0  0  0  0  0  0  0  0  0  0  0
    3.5724   -2.0625    0.0000 C   0  0  0  0  0  0  0  0  0  0  0  0
    3.5724   -2.8876    0.0000 C   0  0  0  0  0  0  0  0  0  0  0  0
    1.4289   -1.6500    0.0000 C   0  0  0  0  0  0  0  0  0  0  0  0
    0.7144   -2.0625    0.0000 O   0  0  0  0  0  0  0  0  0  0  0  0
    0.0000    0.0000    0.0000 H   0  0  0  0  0  0  0  0  0  0  0  0
    0.0000    0.0000    0.0000 H   0  0  0  0  0  0  0  0  0  0  0  0
    0.0000    0.0000    0.0000 H   0  0  0  0  0  0  0  0  0  0  0  0
    0.0000    0.0000    0.0000 H   0  0  0  0  0  0  0  0  0  0  0  0
    0.0000    0.0000    0.0000 H   0  0  0  0  0  0  0  0  0  0  0  0
    0.0000    0.0000    0.0000 H   0  0  0  0  0  0  0  0  0  0  0  0
    0.0000    0.0000    0.0000 H   0  0  0  0  0  0  0  0  0  0  0  0
    0.0000    0.0000    0.0000 H   0  0  0  0  0  0  0  0  0  0  0  0
    0.0000    0.0000    0.0000 H   0  0  0  0  0  0  0  0  0  0  0  0
    0.0000    0.0000    0.0000 H   0  0  0  0  0  0  0  0  0  0  0  0
    0.0000    0.0000    0.0000 H   0  0  0  0  0  0  0  0  0  0  0  0
    0.0000    0.0000    0.0000 H   0  0  0  0  0  0  0  0  0  0  0  0
    0.0000    0.0000    0.0000 H   0  0  0  0  0  0  0  0  0  0  0  0
    0.0000    0.0000    0.0000 H   0  0  0  0  0  0  0  0  0  0  0  0
    0.0000    0.0000    0.0000 H   0  0  0  0  0  0  0  0  0  0  0  0
    0.0000    0.0000    0.0000 H   0  0  0  0  0  0  0  0  0  0  0  0
    0.0000    0.0000    0.0000 H   0  0  0  0  0  0  0  0  0  0  0  0
    0.0000    0.0000    0.0000 H   0  0  0  0  0  0  0  0  0  0  0  0
    0.0000    0.0000    0.0000 H   0  0  0  0  0  0  0  0  0  0  0  0
    0.0000    0.0000    0.0000 H   0  0  0  0  0  0  0  0  0  0  0  0
    0.0000    0.0000    0.0000 H   0  0  0  0  0  0  0  0  0  0  0  0
    0.0000    0.0000    0.0000 H   0  0  0  0  0  0  0  0  0  0  0  0
    0.0000    0.0000    0.0000 H   0  0  0  0  0  0  0  0  0  0  0  0
    0.0000    0.0000    0.0000 H   0  0  0  0  0  0  0  0  0  0  0  0
    0.0000    0.0000    0.0000 H   0  0  0  0  0  0  0  0  0  0  0  0
    0.0000    0.0000    0.0000 H   0  0  0  0  0  0  0  0  0  0  0  0
    0.0000    0.0000    0.0000 H   0  0  0  0  0  0  0  0  0  0  0  0
    0.0000    0.0000    0.0000 H   0  0  0  0  0  0  0  0  0  0  0  0
    0.0000    0.0000    0.0000 H   0  0  0  0  0  0  0  0  0  0  0  0
    0.0000    0.0000    0.0000 H   0  0  0  0  0  0  0  0  0  0  0  0
  1  2  1  0
  1  6  1  0
  2  3  1  0
  3  4  1  0
  4  5  1  0
  5  6  1  0
  5  7  1  6
  6  8  1  6
  2  9  1  1
  3 10  1  6
  1 11  1  6
  4 12  1  1
 13 14  2  0
 13 18  1  0
 14 15  1  0
 15 16  2  0
 15 19  1  0
 16 17  1  0
 17 18  2  0
 19  7  1  0
 19 20  2  0
 21 22  2  0
 21 26  1  0
 22 23  1  0
 23 24  2  0
 23 27  1  0
 24 25  1  0
 25 26  2  0
 27 12  1  0
 27 28  2  0
 29 30  2  0
 29 34  1  0
 30 31  1  0
 31 32  2  0
 31 35  1  0
 32 33  1  0
 33 34  2  0
 35 10  1  0
 35 36  2  0
 37 38  2  0
 37 42  1  0
 38 39  1  0
 39 40  2  0
 39 43  1  0
 40 41  1  0
 41 42  2  0
 43  9  1  0
 43 44  2  0
 45 46  2  0
 45 50  1  0
 46 47  1  0
 47 48  2  0
 47 51  1  0
 48 49  1  0
 49 50  2  0
 51 52  2  0
  8 51  1  0
 53 54  2  0
 53 58  1  0
 54 55  1  0
 55 56  2  0
 55 59  1  0
 56 57  1  0
 57 58  2  0
 59 11  1  0
 59 60  2  0
  1 61  1  0
  2 62  1  0
  3 63  1  0
  4 64  1  0
  5 65  1  0
  6 66  1  0
 14 67  1  0
 16 68  1  0
 17 69  1  0
 18 70  1  0
 22 71  1  0
 24 72  1  0
 25 73  1  0
 26 74  1  0
 30 75  1  0
 32 76  1  0
 33 77  1  0
 34 78  1  0
 38 79  1  0
 40 80  1  0
 41 81  1  0
 42 82  1  0
 46 83  1  0
 48 84  1  0
 49 85  1  0
 50 86  1  0
 54 87  1  0
 56 88  1  0
 57 89  1  0
 58 90  1  0
M  END
>  <ALOGPS_LOGP>  (1) 
3.49

>  <ALOGPS_LOGS>  (1) 
-4.67

>  <ALOGPS_SOLUBILITY>  (1) 
1.74e-02 g/l

>  <DATABASE_ID>  (1) 
DB08949

>  <DATABASE_NAME>  (1) 
drugbank

>  <DRUGBANK_ID>  (1) 
DB08949

>  <DRUG_GROUPS>  (1) 
approved; withdrawn

>  <EXACT_MASS>  (1) 
810.19217043

>  <FORMULA>  (1) 
C42H30N6O12

>  <GENERIC_NAME>  (1) 
Inositol nicotinate

>  <INCHI_IDENTIFIER>  (1) 
InChI=1S/C42H30N6O12/c49-37(25-7-1-13-43-19-25)55-31-32(56-38(50)26-8-2-14-44-20-26)34(58-40(52)28-10-4-16-46-22-28)36(60-42(54)30-12-6-18-48-24-30)35(59-41(53)29-11-5-17-47-23-29)33(31)57-39(51)27-9-3-15-45-21-27/h1-24,31-36H/t31-,32-,33-,34+,35-,36-

>  <INCHI_KEY>  (1) 
MFZCIDXOLLEMOO-GYSGTQPESA-N

>  <INTERNATIONAL_BRANDS>  (1) 
Hexaniton; Hexazin; Hexin; Hexopal; Iexaniton; Nicoxatin

>  <JCHEM_ACCEPTOR_COUNT>  (1) 
12

>  <JCHEM_ATOM_COUNT>  (1) 
90

>  <JCHEM_AVERAGE_POLARIZABILITY>  (1) 
76.08197104297136

>  <JCHEM_BIOAVAILABILITY>  (1) 
0

>  <JCHEM_DONOR_COUNT>  (1) 
0

>  <JCHEM_FORMAL_CHARGE>  (1) 
0

>  <JCHEM_GHOSE_FILTER>  (1) 
0

>  <JCHEM_IUPAC>  (1) 
(1R,2S,3R,4R,5S,6s)-2,3,4,5,6-pentakis(pyridine-3-carbonyloxy)cyclohexyl pyridine-3-carboxylate

>  <JCHEM_LOGP>  (1) 
3.883754877999999

>  <JCHEM_MDDR_LIKE_RULE>  (1) 
1

>  <JCHEM_NUMBER_OF_RINGS>  (1) 
7

>  <JCHEM_PHYSIOLOGICAL_CHARGE>  (1) 
0

>  <JCHEM_PKA_STRONGEST_BASIC>  (1) 
4.017191554377561

>  <JCHEM_POLAR_SURFACE_AREA>  (1) 
235.13999999999993

>  <JCHEM_REFRACTIVITY>  (1) 
201.76559999999992

>  <JCHEM_ROTATABLE_BOND_COUNT>  (1) 
18

>  <JCHEM_RULE_OF_FIVE>  (1) 
0

>  <JCHEM_TRADITIONAL_IUPAC>  (1) 
(1R,2S,3R,4R,5S,6s)-2,3,4,5,6-pentakis(pyridine-3-carbonyloxy)cyclohexyl pyridine-3-carboxylate

>  <JCHEM_VEBER_RULE>  (1) 
0

>  <MOLECULAR_WEIGHT>  (1) 
810.732

>  <PRODUCTS>  (1) 
Advanced 2000 Capsules; Alertonic; American Eagle Energizer Plus Vitamin Supplement Drink; American Plus Energy & Vitamin Drink; B 50 Capsules; B Complex 25mg Vitamin Supplement; B Complex 50 Vitamin Cap; B Complex 50+ Caplet; B Compound 50mg Tab; B-100 Caps; B-100 Vitamin Supplement; B-50 Complex; B-50 Hi Potency B Vitamins Tab; B-complex; B-complex 100; B-complex 50; B-complex Tab; B-complex With Vitamin C, Biotin, Folic Acid; B-complex-50 Tab; B-plex; B-plus - Tab; B50 Complex; Balanced B 125 Srt; Bev 29 Tab; Bev B-150; Bev-lipo-1000; C.A.G. Tab; Calcium Magnesium Plus Vitamin D Liquid; Choline & Inositol Caps; Choline and Inositol 250mg/250mg; Complete Mega B; Complete Multivitamins and Minerals Tablets Timed Release; Complexe B Compose 75; Cyruta Tab; Derma-force; DermaNIC; Dp 2000; Essential B Tablets; Flush Free Niacin With Inositol; Formula 9 Tab; Formula C.I. Tab; Formula Cm; Formula Lf; Formula Pro-B; Forty Plus Vitamin Supplement; Fusion PM Formula Tab; Gnc Choline/inositol 250mg Tablets; Harvest Of Values All B Complex Tab; Hi Potency B Complex W Chelated Minerals; Hi Potency B52 B Complex Tab; Hi Potency Stress B Tension With C; Inositol 250mg - Tab; Inositol 500mg; Inositol Caps 500mg; Inositol Ctr Srt 400mg; Inositol Nicotinate 250 mg; Inositol Nicotinate Plus CR; Inositol Tab 250mg; Inositol Tab 405mg; Inositol-S Tab 400mg; Inositolex 400mgms; Insur-all Vitamin Supplement; Lipo-B-C Tab; Lipotropics 600 Tab; Liqui B Complex; Liqui B Complex Plus; Liqui Vita; Liquid B Complex 50; Low Potency B Complex Tab; Mega 13 Multivitamin Formula; Mini-B Tab; Multi B; Multi Vitamin-mineral Formula; My Favorite Niacin and Inositol Tab; Niacin 500 Mg and Inositol; Onccor; One A Day Tab; Orti B; Palm Spring's PM Form Tab; Phytopure; Red American Eagle Vitamin Supplement Drink; Revitex Ampoules Et Comprimes; Spectrum 2 Cap; Stress B & C  Caplet; Stress B Capsules With Vitamin C; Stress B With 1000 Mg Vitamin C; Stress B&c Tab; Stress Ctr Srt; Stress Formula B-comp + 500mg Vit C Tab; Stress Formula Multi-B Comp + 500mg Vit C Cap; Stress Formula Vit B With C Complex; Stress Forte Plus Lipotropic Factors; Stress Vitamin B With C Complex Tablets; Stressmates; Super B Compound W 500mg Vit C; Super Daily No 2; Super Stress Capsules; Super Stress Mega B Plus 1000mg Vit C Tab; Super-pote Vitamin Supplement; Time Release B 100 Compound  -  Tablet; Timed Release B Complex 100 Srt; Timed Release B-complex 100; Timed Release B-complex 50; Ultra Hr; Usana Megavitamin Tablets - Tab; Vit B Complex Ctr; Vit-HA Multi Vitamin and Zinc Supplement; Vita B Complex Tab; Vita-B; Vita-worth B-complex Tablets; Vitachrom Gc; Vitalife  -  Capsule; Vitamin B + C Cap; Vitamin B Complex 100 Tab; Vitamin B Complex 50; Vitamin B Complex Suppl; Vitamin B Complex W C Tab; Vitamin B Compound W C Tab 500mg; Vitamin B Compound W Vit C 250mg Tab; Vitamin B Tablets; Women's Formula

>  <SMILES>  (1) 
O=C(O[C@H]1[C@H](OC(=O)C2=CC=CN=C2)[C@@H](OC(=O)C2=CC=CN=C2)[C@H](OC(=O)C2=CC=CN=C2)[C@H](OC(=O)C2=CC=CN=C2)[C@@H]1OC(=O)C1=CC=CN=C1)C1=CC=CN=C1

>  <SYNONYMS>  (1) 
hexanicotol; Inositol hexanicotinate; Inositol niacinate; mesoinositol hexanicotinate; myo-inositol hexanicotinate

$$$$
