
     RDKit          2D

 68 67  0  0  0  0  0  0  0  0999 V2000
    5.1521   -1.3156    0.0000 C   0  0  0  0  0  0  0  0  0  0  0  0
    4.3594   -1.0868    0.0000 C   0  0  0  0  0  0  0  0  0  0  0  0
    1.5852   -1.7733    0.0000 C   0  0  0  0  0  0  0  0  0  0  0  0
    1.9815   -0.4004    0.0000 C   0  0  0  0  0  0  0  0  0  0  0  0
    2.3779   -2.0021    0.0000 C   0  0  0  0  0  0  0  0  0  0  0  0
    2.7742   -0.6292    0.0000 C   0  0  0  0  0  0  0  0  0  0  0  0
   -1.7834   -0.0572    0.0000 C   0  0  0  0  0  0  0  0  0  0  0  0
   -2.3779   -0.6292    0.0000 C   0  0  0  0  0  0  0  0  0  0  0  0
    0.5944   -0.7436    0.0000 C   0  0  0  0  0  0  0  0  0  0  0  0
   -0.3963    0.2860    0.0000 C   0  0  0  0  0  0  0  0  0  0  0  0
   -0.7926   -1.0868    0.0000 C   0  0  0  0  0  0  0  0  0  0  0  0
   -3.7650   -0.9724    0.0000 C   0  0  0  0  0  0  0  0  0  0  0  0
   -3.3686    0.4004    0.0000 C   0  0  0  0  0  0  0  0  0  0  0  0
    0.7926    1.4300    0.0000 C   0  0  0  0  0  0  0  0  0  0  0  0
    1.7834    0.4004    0.0000 C   0  0  0  0  0  0  0  0  0  0  0  0
    1.3871   -0.9724    0.0000 C   0  0  0  0  0  0  0  0  0  0  0  0
    0.3963    0.0572    0.0000 C   0  0  0  0  0  0  0  0  0  0  0  0
    2.9723   -1.4300    0.0000 C   0  0  0  0  0  0  0  0  0  0  0  0
   -1.3871   -1.6589    0.0000 C   0  0  0  0  0  0  0  0  0  0  0  0
   -4.5576   -0.7436    0.0000 C   0  0  0  0  0  0  0  0  0  0  0  0
   -2.7742    0.9724    0.0000 C   0  0  0  0  0  0  0  0  0  0  0  0
    0.0000    1.6589    0.0000 C   0  0  0  0  0  0  0  0  0  0  0  0
    2.3779    0.9724    0.0000 C   0  0  0  0  0  0  0  0  0  0  0  0
   -0.9907   -0.2860    0.0000 N   0  0  0  0  0  0  0  0  0  0  0  0
   -3.1705   -0.4004    0.0000 N   0  0  0  0  0  0  0  0  0  0  0  0
    0.9907    0.6292    0.0000 N   0  0  0  0  0  0  0  0  0  0  0  0
   -1.1889   -2.4597    0.0000 O   0  0  0  0  0  0  0  0  0  0  0  0
   -2.1797   -1.4300    0.0000 O   0  0  0  0  0  0  0  0  0  0  0  0
   -5.1521   -1.3156    0.0000 O   0  0  0  0  0  0  0  0  0  0  0  0
   -4.7558    0.0572    0.0000 O   0  0  0  0  0  0  0  0  0  0  0  0
   -2.9723    1.7733    0.0000 O   0  0  0  0  0  0  0  0  0  0  0  0
   -1.9815    0.7436    0.0000 O   0  0  0  0  0  0  0  0  0  0  0  0
   -0.5944    1.0868    0.0000 O   0  0  0  0  0  0  0  0  0  0  0  0
   -0.1981    2.4597    0.0000 O   0  0  0  0  0  0  0  0  0  0  0  0
    2.1797    1.7733    0.0000 O   0  0  0  0  0  0  0  0  0  0  0  0
    3.1705    0.7436    0.0000 O   0  0  0  0  0  0  0  0  0  0  0  0
    3.7650   -1.6589    0.0000 O   0  0  0  0  0  0  0  0  0  0  0  0
   -2.9723   -1.2012    0.0000 Gd  0  0  0  0  0  0  0  0  0  0  0  0
    0.0000    0.0000    0.0000 H   0  0  0  0  0  0  0  0  0  0  0  0
    0.0000    0.0000    0.0000 H   0  0  0  0  0  0  0  0  0  0  0  0
    0.0000    0.0000    0.0000 H   0  0  0  0  0  0  0  0  0  0  0  0
    0.0000    0.0000    0.0000 H   0  0  0  0  0  0  0  0  0  0  0  0
    0.0000    0.0000    0.0000 H   0  0  0  0  0  0  0  0  0  0  0  0
    0.0000    0.0000    0.0000 H   0  0  0  0  0  0  0  0  0  0  0  0
    0.0000    0.0000    0.0000 H   0  0  0  0  0  0  0  0  0  0  0  0
    0.0000    0.0000    0.0000 H   0  0  0  0  0  0  0  0  0  0  0  0
    0.0000    0.0000    0.0000 H   0  0  0  0  0  0  0  0  0  0  0  0
    0.0000    0.0000    0.0000 H   0  0  0  0  0  0  0  0  0  0  0  0
    0.0000    0.0000    0.0000 H   0  0  0  0  0  0  0  0  0  0  0  0
    0.0000    0.0000    0.0000 H   0  0  0  0  0  0  0  0  0  0  0  0
    0.0000    0.0000    0.0000 H   0  0  0  0  0  0  0  0  0  0  0  0
    0.0000    0.0000    0.0000 H   0  0  0  0  0  0  0  0  0  0  0  0
    0.0000    0.0000    0.0000 H   0  0  0  0  0  0  0  0  0  0  0  0
    0.0000    0.0000    0.0000 H   0  0  0  0  0  0  0  0  0  0  0  0
    0.0000    0.0000    0.0000 H   0  0  0  0  0  0  0  0  0  0  0  0
    0.0000    0.0000    0.0000 H   0  0  0  0  0  0  0  0  0  0  0  0
    0.0000    0.0000    0.0000 H   0  0  0  0  0  0  0  0  0  0  0  0
    0.0000    0.0000    0.0000 H   0  0  0  0  0  0  0  0  0  0  0  0
    0.0000    0.0000    0.0000 H   0  0  0  0  0  0  0  0  0  0  0  0
    0.0000    0.0000    0.0000 H   0  0  0  0  0  0  0  0  0  0  0  0
    0.0000    0.0000    0.0000 H   0  0  0  0  0  0  0  0  0  0  0  0
    0.0000    0.0000    0.0000 H   0  0  0  0  0  0  0  0  0  0  0  0
    0.0000    0.0000    0.0000 H   0  0  0  0  0  0  0  0  0  0  0  0
    0.0000    0.0000    0.0000 H   0  0  0  0  0  0  0  0  0  0  0  0
    0.0000    0.0000    0.0000 H   0  0  0  0  0  0  0  0  0  0  0  0
    0.0000    0.0000    0.0000 H   0  0  0  0  0  0  0  0  0  0  0  0
    0.0000    0.0000    0.0000 H   0  0  0  0  0  0  0  0  0  0  0  0
    0.0000    0.0000    0.0000 H   0  0  0  0  0  0  0  0  0  0  0  0
  2  1  1  0
  5  3  2  0
  6  4  1  0
  8  7  1  0
 16  3  1  0
 16  4  2  0
 16  9  1  0
 17  9  1  1
 17 10  1  0
 18  5  1  0
 18  6  2  0
 19 11  1  0
 20 12  1  0
 21 13  1  0
 22 14  1  0
 23 15  1  0
 24  7  1  0
 24 10  1  0
 24 11  1  0
 25  8  1  0
 25 12  1  0
 25 13  1  0
 26 14  1  0
 26 15  1  0
 17 26  1  0
 27 19  2  0
 28 19  1  0
 29 20  2  0
 30 20  1  0
 31 21  2  0
 32 21  1  0
 33 22  2  0
 34 22  1  0
 35 23  2  0
 36 23  1  0
 37  2  1  0
 37 18  1  0
  1 39  1  0
  1 40  1  0
  1 41  1  0
  2 42  1  0
  2 43  1  0
  3 44  1  0
  4 45  1  0
  5 46  1  0
  6 47  1  0
  7 48  1  0
  7 49  1  0
  8 50  1  0
  8 51  1  0
  9 52  1  0
  9 53  1  0
 10 54  1  0
 10 55  1  0
 11 56  1  0
 11 57  1  0
 12 58  1  0
 12 59  1  0
 13 60  1  0
 13 61  1  0
 14 62  1  0
 14 63  1  0
 15 64  1  0
 15 65  1  0
 17 66  1  0
 34 67  1  0
 36 68  1  0
M  CHG  4  28  -1  30  -1  32  -1  38   3
M  END
>  <ALOGPS_LOGP>  (1) 
1.24

>  <ALOGPS_LOGS>  (1) 
-3.20

>  <ALOGPS_SOLUBILITY>  (1) 
4.97e-01 g/l

>  <DATABASE_ID>  (1) 
DB08884

>  <DATABASE_NAME>  (1) 
drugbank

>  <DRUGBANK_ID>  (1) 
DB08884

>  <DRUG_GROUPS>  (1) 
approved

>  <EXACT_MASS>  (1) 
682.11214

>  <FORMULA>  (1) 
C23H30GdN3O11

>  <GENERIC_NAME>  (1) 
Gadoxetic acid

>  <INCHI_IDENTIFIER>  (1) 
InChI=1S/C23H33N3O11.Gd/c1-2-37-18-5-3-16(4-6-18)9-17(26(14-22(33)34)15-23(35)36)10-24(11-19(27)28)7-8-25(12-20(29)30)13-21(31)32;/h3-6,17H,2,7-15H2,1H3,(H,27,28)(H,29,30)(H,31,32)(H,33,34)(H,35,36);/q;+3/p-3/t17-;/m0./s1

>  <INCHI_KEY>  (1) 
PCZHWPSNPWAQNF-LMOVPXPDSA-K

>  <JCHEM_ACCEPTOR_COUNT>  (1) 
14

>  <JCHEM_ATOM_COUNT>  (1) 
68

>  <JCHEM_AVERAGE_POLARIZABILITY>  (1) 
50.669899948889565

>  <JCHEM_BIOAVAILABILITY>  (1) 
0

>  <JCHEM_DONOR_COUNT>  (1) 
2

>  <JCHEM_FORMAL_CHARGE>  (1) 
0

>  <JCHEM_GHOSE_FILTER>  (1) 
0

>  <JCHEM_IUPAC>  (1) 
gadolinium(3+) ion 2-[(2-{[(2S)-2-[bis(carboxymethyl)amino]-3-(4-ethoxyphenyl)propyl](carboxylatomethyl)amino}ethyl)(carboxylatomethyl)amino]acetate

>  <JCHEM_LOGP>  (1) 
-4.260546431052885

>  <JCHEM_MDDR_LIKE_RULE>  (1) 
0

>  <JCHEM_NUMBER_OF_RINGS>  (1) 
1

>  <JCHEM_PHYSIOLOGICAL_CHARGE>  (1) 
-3

>  <JCHEM_PKA>  (1) 
2.509653931488985

>  <JCHEM_PKA_STRONGEST_ACIDIC>  (1) 
1.976827790424295

>  <JCHEM_PKA_STRONGEST_BASIC>  (1) 
9.985385168583761

>  <JCHEM_POLAR_SURFACE_AREA>  (1) 
213.93999999999994

>  <JCHEM_REFRACTIVITY>  (1) 
159.21020000000001

>  <JCHEM_ROTATABLE_BOND_COUNT>  (1) 
20

>  <JCHEM_RULE_OF_FIVE>  (1) 
0

>  <JCHEM_TRADITIONAL_IUPAC>  (1) 
gadolinium(3+) ion 2-[(2-{[(2S)-2-[bis(carboxymethyl)amino]-3-(4-ethoxyphenyl)propyl](carboxylatomethyl)amino}ethyl)(carboxylatomethyl)amino]acetate

>  <JCHEM_VEBER_RULE>  (1) 
0

>  <MOLECULAR_WEIGHT>  (1) 
681.75

>  <PRODUCTS>  (1) 
Eovist; Primovist

>  <SALTS>  (1) 
Gadoxetate disodium

>  <SMILES>  (1) 
[Gd+3].[H][C@@](CN(CCN(CC([O-])=O)CC([O-])=O)CC([O-])=O)(CC1=CC=C(OCC)C=C1)N(CC(O)=O)CC(O)=O

>  <SYNONYMS>  (1) 
Gadoxetate; Gd-EOB-DTPA

$$$$
