
     RDKit          2D

 55 58  0  0  0  0  0  0  0  0999 V2000
    7.9361   -1.3437    0.0000 C   0  0  0  0  0  0  0  0  0  0  0  0
    3.9503    0.0961    0.0000 C   0  0  0  0  0  0  0  0  0  0  0  0
    6.4662    0.4982    0.0000 C   0  0  0  0  0  0  0  0  0  0  0  0
    3.9215   -2.0864    0.0000 C   0  0  0  0  0  0  0  0  0  0  0  0
    4.7336   -1.9412    0.0000 C   0  0  0  0  0  0  0  0  0  0  0  0
    2.3260   -0.1942    0.0000 C   0  0  0  0  0  0  0  0  0  0  0  0
    3.1381   -0.0490    0.0000 C   0  0  0  0  0  0  0  0  0  0  0  0
    6.4773   -1.5264    0.0000 C   0  0  0  0  0  0  0  0  0  0  0  0
    2.5775   -1.6009    0.0000 C   0  0  0  0  0  0  0  0  0  0  0  0
    5.5745    0.3865    0.0000 C   0  0  0  0  0  0  0  0  0  0  0  0
    8.2748   -0.7564    0.0000 C   0  0  0  0  0  0  0  0  0  0  0  0
    7.1602   -1.0634    0.0000 C   0  0  0  0  0  0  0  0  0  0  0  0
    3.3897   -1.4557    0.0000 C   0  0  0  0  0  0  0  0  0  0  0  0
    2.0457   -0.9702    0.0000 C   0  0  0  0  0  0  0  0  0  0  0  0
    5.0139   -1.1652    0.0000 C   0  0  0  0  0  0  0  0  0  0  0  0
    5.8260   -1.0200    0.0000 C   0  0  0  0  0  0  0  0  0  0  0  0
    4.7624    0.2413    0.0000 C   0  0  0  0  0  0  0  0  0  0  0  0
    7.7430   -0.1257    0.0000 C   0  0  0  0  0  0  0  0  0  0  0  0
    3.6700   -0.6797    0.0000 C   0  0  0  0  0  0  0  0  0  0  0  0
    6.1063   -0.2441    0.0000 C   0  0  0  0  0  0  0  0  0  0  0  0
    4.4821   -0.5345    0.0000 C   0  0  0  0  0  0  0  0  0  0  0  0
    6.9309   -0.2709    0.0000 C   0  0  0  0  0  0  0  0  0  0  0  0
    4.4225    0.2882    0.0000 F   0  0  0  0  0  0  0  0  0  0  0  0
    9.0869   -0.6112    0.0000 O   0  0  0  0  0  0  0  0  0  0  0  0
    1.2336   -1.1154    0.0000 O   0  0  0  0  0  0  0  0  0  0  0  0
    4.2306    0.8720    0.0000 O   0  0  0  0  0  0  0  0  0  0  0  0
    8.0233    0.6501    0.0000 O   0  0  0  0  0  0  0  0  0  0  0  0
    6.8713    0.5519    0.0000 O   0  0  0  0  0  0  0  0  0  0  0  0
    0.0000    0.0000    0.0000 H   0  0  0  0  0  0  0  0  0  0  0  0
    0.0000    0.0000    0.0000 H   0  0  0  0  0  0  0  0  0  0  0  0
    0.0000    0.0000    0.0000 H   0  0  0  0  0  0  0  0  0  0  0  0
    0.0000    0.0000    0.0000 H   0  0  0  0  0  0  0  0  0  0  0  0
    0.0000    0.0000    0.0000 H   0  0  0  0  0  0  0  0  0  0  0  0
    0.0000    0.0000    0.0000 H   0  0  0  0  0  0  0  0  0  0  0  0
    0.0000    0.0000    0.0000 H   0  0  0  0  0  0  0  0  0  0  0  0
    0.0000    0.0000    0.0000 H   0  0  0  0  0  0  0  0  0  0  0  0
    0.0000    0.0000    0.0000 H   0  0  0  0  0  0  0  0  0  0  0  0
    0.0000    0.0000    0.0000 H   0  0  0  0  0  0  0  0  0  0  0  0
    0.0000    0.0000    0.0000 H   0  0  0  0  0  0  0  0  0  0  0  0
    0.0000    0.0000    0.0000 H   0  0  0  0  0  0  0  0  0  0  0  0
    0.0000    0.0000    0.0000 H   0  0  0  0  0  0  0  0  0  0  0  0
    0.0000    0.0000    0.0000 H   0  0  0  0  0  0  0  0  0  0  0  0
    0.0000    0.0000    0.0000 H   0  0  0  0  0  0  0  0  0  0  0  0
    0.0000    0.0000    0.0000 H   0  0  0  0  0  0  0  0  0  0  0  0
    0.0000    0.0000    0.0000 H   0  0  0  0  0  0  0  0  0  0  0  0
    0.0000    0.0000    0.0000 H   0  0  0  0  0  0  0  0  0  0  0  0
    0.0000    0.0000    0.0000 H   0  0  0  0  0  0  0  0  0  0  0  0
    0.0000    0.0000    0.0000 H   0  0  0  0  0  0  0  0  0  0  0  0
    0.0000    0.0000    0.0000 H   0  0  0  0  0  0  0  0  0  0  0  0
    0.0000    0.0000    0.0000 H   0  0  0  0  0  0  0  0  0  0  0  0
    0.0000    0.0000    0.0000 H   0  0  0  0  0  0  0  0  0  0  0  0
    0.0000    0.0000    0.0000 H   0  0  0  0  0  0  0  0  0  0  0  0
    0.0000    0.0000    0.0000 H   0  0  0  0  0  0  0  0  0  0  0  0
    0.0000    0.0000    0.0000 H   0  0  0  0  0  0  0  0  0  0  0  0
    0.0000    0.0000    0.0000 H   0  0  0  0  0  0  0  0  0  0  0  0
  5  4  1  0
  7  6  2  0
 12  1  2  3
 12  8  1  0
 13  4  1  0
 13  9  2  0
 14  6  1  0
 14  9  1  0
 15  5  1  0
 16  8  1  0
 16 15  1  0
 17 10  1  0
 18 11  1  0
 19  2  1  1
 19  7  1  0
 19 13  1  0
 20  3  1  1
 20 10  1  0
 20 16  1  0
 21 15  1  0
 21 17  1  0
 21 19  1  0
 22 12  1  0
 22 18  1  1
 22 20  1  0
 21 23  1  6
 24 11  1  0
 25 14  2  0
 17 26  1  1
 27 18  2  0
 22 28  1  0
  1 29  1  0
  1 30  1  0
  2 31  1  0
  2 32  1  0
  2 33  1  0
  3 34  1  0
  3 35  1  0
  3 36  1  0
  4 37  1  0
  4 38  1  0
  5 39  1  0
  5 40  1  0
  6 41  1  0
  7 42  1  0
  8 43  1  0
  8 44  1  0
  9 45  1  0
 10 46  1  0
 10 47  1  0
 11 48  1  0
 11 49  1  0
 15 50  1  1
 16 51  1  6
 17 52  1  0
 24 53  1  0
 26 54  1  0
 28 55  1  0
M  END
>  <ALOGPS_LOGP>  (1) 
1.65

>  <ALOGPS_LOGS>  (1) 
-3.52

>  <ALOGPS_SOLUBILITY>  (1) 
1.17e-01 g/l

>  <DATABASE_ID>  (1) 
DB08970

>  <DATABASE_NAME>  (1) 
drugbank

>  <DRUGBANK_ID>  (1) 
DB08970

>  <DRUG_GROUPS>  (1) 
approved; withdrawn

>  <EXACT_MASS>  (1) 
390.184252179

>  <FORMULA>  (1) 
C22H27FO5

>  <GENERIC_NAME>  (1) 
Fluprednidene

>  <INCHI_IDENTIFIER>  (1) 
InChI=1S/C22H27FO5/c1-12-8-16-15-5-4-13-9-14(25)6-7-19(13,2)21(15,23)17(26)10-20(16,3)22(12,28)18(27)11-24/h6-7,9,15-17,24,26,28H,1,4-5,8,10-11H2,2-3H3/t15-,16-,17-,19-,20-,21-,22-/m0/s1

>  <INCHI_KEY>  (1) 
YVHXHNGGPURVOS-SBTDHBFYSA-N

>  <JCHEM_ACCEPTOR_COUNT>  (1) 
5

>  <JCHEM_AVERAGE_POLARIZABILITY>  (1) 
40.30880749480292

>  <JCHEM_BIOAVAILABILITY>  (1) 
1

>  <JCHEM_DONOR_COUNT>  (1) 
3

>  <JCHEM_FORMAL_CHARGE>  (1) 
0

>  <JCHEM_GHOSE_FILTER>  (1) 
1

>  <JCHEM_IUPAC>  (1) 
(1R,2S,10S,11S,14R,15S,17S)-1-fluoro-14,17-dihydroxy-14-(2-hydroxyacetyl)-2,15-dimethyl-13-methylidenetetracyclo[8.7.0.0²,⁷.0¹¹,¹⁵]heptadeca-3,6-dien-5-one

>  <JCHEM_LOGP>  (1) 
1.4118775986666672

>  <JCHEM_MDDR_LIKE_RULE>  (1) 
0

>  <JCHEM_NUMBER_OF_RINGS>  (1) 
4

>  <JCHEM_PHYSIOLOGICAL_CHARGE>  (1) 
0

>  <JCHEM_PKA>  (1) 
13.45603167089891

>  <JCHEM_PKA_STRONGEST_ACIDIC>  (1) 
12.108120710840666

>  <JCHEM_PKA_STRONGEST_BASIC>  (1) 
-3.3347174990174704

>  <JCHEM_POLAR_SURFACE_AREA>  (1) 
94.83

>  <JCHEM_REFRACTIVITY>  (1) 
102.19339999999995

>  <JCHEM_ROTATABLE_BOND_COUNT>  (1) 
2

>  <JCHEM_RULE_OF_FIVE>  (1) 
1

>  <JCHEM_TRADITIONAL_IUPAC>  (1) 
fluprednidene

>  <JCHEM_VEBER_RULE>  (1) 
0

>  <MOLECULAR_WEIGHT>  (1) 
390.4452

>  <SALTS>  (1) 
Fluprednidene acetate

>  <SMILES>  (1) 
[H][C@@]12CC(=C)[C@](O)(C(=O)CO)[C@@]1(C)C[C@]([H])(O)[C@@]1(F)[C@@]2([H])CCC2=CC(=O)C=C[C@]12C

$$$$
