34154
     RDKit          2D

 37 38  0  0  0  0  0  0  0  0999 V2000
    3.7935   -0.0160    0.0000 O   0  0  0  0  0  0  0  0  0  0  0  0
    3.8405    1.7065    0.0000 N   0  0  0  0  0  0  0  0  0  0  0  0
    5.1754    1.7065    0.0000 N   0  0  0  0  0  0  0  0  0  0  0  0
    2.3645   -0.8410    0.0000 C   0  0  0  0  0  0  0  0  0  0  0  0
    3.0790   -1.2535    0.0000 C   0  0  0  0  0  0  0  0  0  0  0  0
    3.7935   -0.8410    0.0000 C   0  0  0  0  0  0  0  0  0  0  0  0
    4.5080    1.2215    0.0000 C   0  0  0  0  0  0  0  0  0  0  0  0
    1.6500   -1.2535    0.0000 C   0  0  0  0  0  0  0  0  0  0  0  0
    2.3645   -0.0160    0.0000 C   0  0  0  0  0  0  0  0  0  0  0  0
    4.0955    2.4911    0.0000 C   0  0  0  0  0  0  0  0  0  0  0  0
    3.0790   -2.0786    0.0000 C   0  0  0  0  0  0  0  0  0  0  0  0
    4.5080    0.3965    0.0000 C   0  0  0  0  0  0  0  0  0  0  0  0
    4.9205    2.4911    0.0000 C   0  0  0  0  0  0  0  0  0  0  0  0
    4.5080   -1.2535    0.0000 C   0  0  0  0  0  0  0  0  0  0  0  0
    4.5080   -2.0786    0.0000 C   0  0  0  0  0  0  0  0  0  0  0  0
    3.7935   -2.4911    0.0000 C   0  0  0  0  0  0  0  0  0  0  0  0
    5.2224   -2.4911    0.0000 C   0  0  0  0  0  0  0  0  0  0  0  0
    0.0000    0.0000    0.0000 H   0  0  0  0  0  0  0  0  0  0  0  0
    0.0000    0.0000    0.0000 H   0  0  0  0  0  0  0  0  0  0  0  0
    0.0000    0.0000    0.0000 H   0  0  0  0  0  0  0  0  0  0  0  0
    0.0000    0.0000    0.0000 H   0  0  0  0  0  0  0  0  0  0  0  0
    0.0000    0.0000    0.0000 H   0  0  0  0  0  0  0  0  0  0  0  0
    0.0000    0.0000    0.0000 H   0  0  0  0  0  0  0  0  0  0  0  0
    0.0000    0.0000    0.0000 H   0  0  0  0  0  0  0  0  0  0  0  0
    0.0000    0.0000    0.0000 H   0  0  0  0  0  0  0  0  0  0  0  0
    0.0000    0.0000    0.0000 H   0  0  0  0  0  0  0  0  0  0  0  0
    0.0000    0.0000    0.0000 H   0  0  0  0  0  0  0  0  0  0  0  0
    0.0000    0.0000    0.0000 H   0  0  0  0  0  0  0  0  0  0  0  0
    0.0000    0.0000    0.0000 H   0  0  0  0  0  0  0  0  0  0  0  0
    0.0000    0.0000    0.0000 H   0  0  0  0  0  0  0  0  0  0  0  0
    0.0000    0.0000    0.0000 H   0  0  0  0  0  0  0  0  0  0  0  0
    0.0000    0.0000    0.0000 H   0  0  0  0  0  0  0  0  0  0  0  0
    0.0000    0.0000    0.0000 H   0  0  0  0  0  0  0  0  0  0  0  0
    0.0000    0.0000    0.0000 H   0  0  0  0  0  0  0  0  0  0  0  0
    0.0000    0.0000    0.0000 H   0  0  0  0  0  0  0  0  0  0  0  0
    0.0000    0.0000    0.0000 H   0  0  0  0  0  0  0  0  0  0  0  0
    0.0000    0.0000    0.0000 H   0  0  0  0  0  0  0  0  0  0  0  0
  1  6  1  0
  1 12  1  0
  2  7  1  0
  2 10  1  0
  3  7  2  0
  3 13  1  0
  4  5  1  0
  4  8  1  0
  4  9  1  0
  5  6  2  0
  5 11  1  0
  6 14  1  0
  7 12  1  0
 10 13  1  0
 11 16  2  0
 14 15  2  0
 15 16  1  0
 15 17  1  0
  2 18  1  0
  4 19  1  0
  8 20  1  0
  8 21  1  0
  8 22  1  0
  9 23  1  0
  9 24  1  0
  9 25  1  0
 10 26  1  0
 10 27  1  0
 11 28  1  0
 12 29  1  0
 12 30  1  0
 13 31  1  0
 13 32  1  0
 14 33  1  0
 16 34  1  0
 17 35  1  0
 17 36  1  0
 17 37  1  0
M  END
>  <ALOGPS_LOGP>  (1) 
3.20

>  <ALOGPS_LOGS>  (1) 
-3.29

>  <ALOGPS_SOLUBILITY>  (1) 
1.18e-01 g/l

>  <DATABASE_ID>  (1) 
DB08803

>  <DATABASE_NAME>  (1) 
drugbank

>  <DRUGBANK_ID>  (1) 
DB08803

>  <DRUG_GROUPS>  (1) 
approved

>  <EXACT_MASS>  (1) 
232.157563272

>  <FORMULA>  (1) 
C14H20N2O

>  <GENERIC_NAME>  (1) 
Tymazoline

>  <INCHI_IDENTIFIER>  (1) 
InChI=1S/C14H20N2O/c1-10(2)12-5-4-11(3)8-13(12)17-9-14-15-6-7-16-14/h4-5,8,10H,6-7,9H2,1-3H3,(H,15,16)

>  <INCHI_KEY>  (1) 
QRORCRWSRPKEHR-UHFFFAOYSA-N

>  <INTERNATIONAL_BRANDS>  (1) 
Thymazen

>  <JCHEM_ACCEPTOR_COUNT>  (1) 
3

>  <JCHEM_AVERAGE_POLARIZABILITY>  (1) 
27.2930740730135

>  <JCHEM_BIOAVAILABILITY>  (1) 
1

>  <JCHEM_DONOR_COUNT>  (1) 
1

>  <JCHEM_FORMAL_CHARGE>  (1) 
0

>  <JCHEM_GHOSE_FILTER>  (1) 
1

>  <JCHEM_IUPAC>  (1) 
2-[5-methyl-2-(propan-2-yl)phenoxymethyl]-4,5-dihydro-1H-imidazole

>  <JCHEM_LOGP>  (1) 
2.6446344863333335

>  <JCHEM_MDDR_LIKE_RULE>  (1) 
0

>  <JCHEM_NUMBER_OF_RINGS>  (1) 
2

>  <JCHEM_PHYSIOLOGICAL_CHARGE>  (1) 
1

>  <JCHEM_PKA_STRONGEST_BASIC>  (1) 
7.658453260346002

>  <JCHEM_POLAR_SURFACE_AREA>  (1) 
33.62

>  <JCHEM_REFRACTIVITY>  (1) 
69.5415

>  <JCHEM_ROTATABLE_BOND_COUNT>  (1) 
4

>  <JCHEM_RULE_OF_FIVE>  (1) 
1

>  <JCHEM_TRADITIONAL_IUPAC>  (1) 
tymazoline

>  <JCHEM_VEBER_RULE>  (1) 
1

>  <MOLECULAR_WEIGHT>  (1) 
232.3214

>  <SMILES>  (1) 
CC(C)C1=C(OCC2=NCCN2)C=C(C)C=C1

$$$$
