VGH
     RDKit          2D

 52 55  0  0  0  0  0  0  0  0999 V2000
    0.3641    4.0632    0.0000 Cl  0  0  0  0  0  0  0  0  0  0  0  0
    1.0785    3.6507    0.0000 C   0  0  0  0  0  0  0  0  0  0  0  0
    1.7930    4.0632    0.0000 C   0  0  0  0  0  0  0  0  0  0  0  0
    2.5075    3.6507    0.0000 C   0  0  0  0  0  0  0  0  0  0  0  0
    2.5075    2.8257    0.0000 C   0  0  0  0  0  0  0  0  0  0  0  0
    3.2220    2.4132    0.0000 F   0  0  0  0  0  0  0  0  0  0  0  0
    1.0785    2.8257    0.0000 C   0  0  0  0  0  0  0  0  0  0  0  0
    1.7930    2.4132    0.0000 C   0  0  0  0  0  0  0  0  0  0  0  0
    1.7930    1.5882    0.0000 Cl  0  0  0  0  0  0  0  0  0  0  0  0
    0.3641    2.4132    0.0000 C   0  0  0  0  0  0  0  0  0  0  0  0
   -0.3504    2.8257    0.0000 C   0  0  0  0  0  0  0  0  0  0  0  0
    0.3641    1.5882    0.0000 O   0  0  0  0  0  0  0  0  0  0  0  0
   -0.3504    1.1757    0.0000 C   0  0  0  0  0  0  0  0  0  0  0  0
   -0.3504    0.3507    0.0000 C   0  0  0  0  0  0  0  0  0  0  0  0
   -1.0649    1.5882    0.0000 C   0  0  0  0  0  0  0  0  0  0  0  0
   -1.0649    2.4132    0.0000 N   0  0  0  0  0  0  0  0  0  0  0  0
   -1.7793    1.1757    0.0000 N   0  0  0  0  0  0  0  0  0  0  0  0
   -1.7793    0.3507    0.0000 C   0  0  0  0  0  0  0  0  0  0  0  0
   -1.0649   -0.0618    0.0000 C   0  0  0  0  0  0  0  0  0  0  0  0
   -1.0649   -0.8868    0.0000 C   0  0  0  0  0  0  0  0  0  0  0  0
   -0.3974   -1.3718    0.0000 C   0  0  0  0  0  0  0  0  0  0  0  0
   -1.7323   -1.3718    0.0000 C   0  0  0  0  0  0  0  0  0  0  0  0
   -1.4774   -2.1564    0.0000 N   0  0  0  0  0  0  0  0  0  0  0  0
   -0.6524   -2.1564    0.0000 N   0  0  0  0  0  0  0  0  0  0  0  0
   -1.9623   -2.8238    0.0000 C   0  0  0  0  0  0  0  0  0  0  0  0
   -1.6267   -3.5775    0.0000 C   0  0  0  0  0  0  0  0  0  0  0  0
   -2.1117   -4.2449    0.0000 C   0  0  0  0  0  0  0  0  0  0  0  0
   -2.9321   -4.1587    0.0000 N   0  0  0  0  0  0  0  0  0  0  0  0
   -3.2677   -3.4050    0.0000 C   0  0  0  0  0  0  0  0  0  0  0  0
   -2.7828   -2.7376    0.0000 C   0  0  0  0  0  0  0  0  0  0  0  0
    0.0000    0.0000    0.0000 H   0  0  0  0  0  0  0  0  0  0  0  0
    0.0000    0.0000    0.0000 H   0  0  0  0  0  0  0  0  0  0  0  0
    0.0000    0.0000    0.0000 H   0  0  0  0  0  0  0  0  0  0  0  0
    0.0000    0.0000    0.0000 H   0  0  0  0  0  0  0  0  0  0  0  0
    0.0000    0.0000    0.0000 H   0  0  0  0  0  0  0  0  0  0  0  0
    0.0000    0.0000    0.0000 H   0  0  0  0  0  0  0  0  0  0  0  0
    0.0000    0.0000    0.0000 H   0  0  0  0  0  0  0  0  0  0  0  0
    0.0000    0.0000    0.0000 H   0  0  0  0  0  0  0  0  0  0  0  0
    0.0000    0.0000    0.0000 H   0  0  0  0  0  0  0  0  0  0  0  0
    0.0000    0.0000    0.0000 H   0  0  0  0  0  0  0  0  0  0  0  0
    0.0000    0.0000    0.0000 H   0  0  0  0  0  0  0  0  0  0  0  0
    0.0000    0.0000    0.0000 H   0  0  0  0  0  0  0  0  0  0  0  0
    0.0000    0.0000    0.0000 H   0  0  0  0  0  0  0  0  0  0  0  0
    0.0000    0.0000    0.0000 H   0  0  0  0  0  0  0  0  0  0  0  0
    0.0000    0.0000    0.0000 H   0  0  0  0  0  0  0  0  0  0  0  0
    0.0000    0.0000    0.0000 H   0  0  0  0  0  0  0  0  0  0  0  0
    0.0000    0.0000    0.0000 H   0  0  0  0  0  0  0  0  0  0  0  0
    0.0000    0.0000    0.0000 H   0  0  0  0  0  0  0  0  0  0  0  0
    0.0000    0.0000    0.0000 H   0  0  0  0  0  0  0  0  0  0  0  0
    0.0000    0.0000    0.0000 H   0  0  0  0  0  0  0  0  0  0  0  0
    0.0000    0.0000    0.0000 H   0  0  0  0  0  0  0  0  0  0  0  0
    0.0000    0.0000    0.0000 H   0  0  0  0  0  0  0  0  0  0  0  0
  1  2  1  0
  2  3  2  0
  2  7  1  0
  3  4  1  0
  4  5  2  0
  5  6  1  0
  5  8  1  0
  7  8  2  0
 10  7  1  1
  8  9  1  0
 10 11  1  0
 10 12  1  0
 12 13  1  0
 13 14  2  0
 13 15  1  0
 14 19  1  0
 15 16  1  0
 15 17  2  0
 17 18  1  0
 18 19  2  0
 19 20  1  0
 20 21  1  0
 20 22  2  0
 21 24  2  0
 22 23  1  0
 23 24  1  0
 23 25  1  0
 25 26  1  0
 25 30  1  0
 26 27  1  0
 27 28  1  0
 28 29  1  0
 29 30  1  0
  3 31  1  0
  4 32  1  0
 10 33  1  0
 11 34  1  0
 11 35  1  0
 11 36  1  0
 14 37  1  0
 16 38  1  0
 16 39  1  0
 18 40  1  0
 21 41  1  0
 22 42  1  0
 25 43  1  0
 26 44  1  0
 26 45  1  0
 27 46  1  0
 27 47  1  0
 28 48  1  0
 29 49  1  0
 29 50  1  0
 30 51  1  0
 30 52  1  0
M  END
>  <ALOGPS_LOGP>  (1) 
3.82

>  <ALOGPS_LOGS>  (1) 
-4.87

>  <ALOGPS_SOLUBILITY>  (1) 
6.11e-03 g/l

>  <DATABASE_ID>  (1) 
DB08865

>  <DATABASE_NAME>  (1) 
drugbank

>  <DRUGBANK_ID>  (1) 
DB08865

>  <DRUG_GROUPS>  (1) 
approved

>  <EXACT_MASS>  (1) 
449.11854397

>  <FORMULA>  (1) 
C21H22Cl2FN5O

>  <GENERIC_NAME>  (1) 
Crizotinib

>  <INCHI_IDENTIFIER>  (1) 
InChI=1S/C21H22Cl2FN5O/c1-12(19-16(22)2-3-17(24)20(19)23)30-18-8-13(9-27-21(18)25)14-10-28-29(11-14)15-4-6-26-7-5-15/h2-3,8-12,15,26H,4-7H2,1H3,(H2,25,27)/t12-/m1/s1

>  <INCHI_KEY>  (1) 
KTEIFNKAUNYNJU-GFCCVEGCSA-N

>  <JCHEM_ACCEPTOR_COUNT>  (1) 
5

>  <JCHEM_AVERAGE_POLARIZABILITY>  (1) 
45.43909864919616

>  <JCHEM_BIOAVAILABILITY>  (1) 
1

>  <JCHEM_DONOR_COUNT>  (1) 
2

>  <JCHEM_FORMAL_CHARGE>  (1) 
0

>  <JCHEM_GHOSE_FILTER>  (1) 
1

>  <JCHEM_IUPAC>  (1) 
3-[(1R)-1-(2,6-dichloro-3-fluorophenyl)ethoxy]-5-[1-(piperidin-4-yl)-1H-pyrazol-4-yl]pyridin-2-amine

>  <JCHEM_LOGP>  (1) 
3.5741167396666658

>  <JCHEM_MDDR_LIKE_RULE>  (1) 
0

>  <JCHEM_NUMBER_OF_RINGS>  (1) 
4

>  <JCHEM_PHYSIOLOGICAL_CHARGE>  (1) 
1

>  <JCHEM_PKA_STRONGEST_BASIC>  (1) 
10.122354157086022

>  <JCHEM_POLAR_SURFACE_AREA>  (1) 
77.99000000000001

>  <JCHEM_REFRACTIVITY>  (1) 
128.43159999999997

>  <JCHEM_ROTATABLE_BOND_COUNT>  (1) 
5

>  <JCHEM_RULE_OF_FIVE>  (1) 
1

>  <JCHEM_TRADITIONAL_IUPAC>  (1) 
crizotinib

>  <JCHEM_VEBER_RULE>  (1) 
0

>  <MOLECULAR_WEIGHT>  (1) 
450.337

>  <PRODUCTS>  (1) 
Xalkori

>  <SECONDARY_ACCESSION_NUMBERS>  (1) 
DB08700

>  <SMILES>  (1) 
[H][C@](C)(OC1=CC(=CN=C1N)C1=CN(N=C1)C1CCNCC1)C1=C(Cl)C=CC(F)=C1Cl

>  <SYNONYMS>  (1) 
(R)-crizotinib; Crizotinib; Crizotinibum

$$$$
