
     RDKit          2D

 18 18  0  0  1  0  0  0  0  0999 V2000
   25.8832  -14.1738    0.0000 O   0  0  0  0  0  0  0  0  0  0  0  0
   22.9206  -13.0189    0.0000 O   0  0  0  0  0  0  0  0  0  0  0  0
   23.3621  -11.6598    0.0000 O   0  0  0  0  0  0  0  0  0  0  0  0
   24.9857  -12.2368    0.0000 N   0  0  0  0  0  0  0  0  0  0  0  0
   24.5732  -13.5063    0.0000 C   0  0  0  0  0  0  0  0  0  0  0  0
   24.3183  -12.7217    0.0000 C   0  0  0  0  0  0  0  0  0  0  0  0
   25.3982  -13.5063    0.0000 C   0  0  0  0  0  0  0  0  0  0  0  0
   25.6532  -12.7217    0.0000 C   0  0  0  0  0  0  0  0  0  0  0  0
   23.5337  -12.4668    0.0000 C   0  0  0  0  0  0  0  0  0  0  0  0
    0.0000    0.0000    0.0000 H   0  0  0  0  0  0  0  0  0  0  0  0
    0.0000    0.0000    0.0000 H   0  0  0  0  0  0  0  0  0  0  0  0
    0.0000    0.0000    0.0000 H   0  0  0  0  0  0  0  0  0  0  0  0
    0.0000    0.0000    0.0000 H   0  0  0  0  0  0  0  0  0  0  0  0
    0.0000    0.0000    0.0000 H   0  0  0  0  0  0  0  0  0  0  0  0
    0.0000    0.0000    0.0000 H   0  0  0  0  0  0  0  0  0  0  0  0
    0.0000    0.0000    0.0000 H   0  0  0  0  0  0  0  0  0  0  0  0
    0.0000    0.0000    0.0000 H   0  0  0  0  0  0  0  0  0  0  0  0
    0.0000    0.0000    0.0000 H   0  0  0  0  0  0  0  0  0  0  0  0
  7  1  1  1
  2  9  1  0
  3  9  2  0
  4  6  1  0
  4  8  1  0
  5  6  1  0
  5  7  1  0
  6  9  1  1
  7  8  1  0
  1 10  1  0
  2 11  1  0
  4 12  1  0
  5 13  1  0
  5 14  1  0
  6 15  1  0
  7 16  1  0
  8 17  1  0
  8 18  1  0
M  END
>  <ALOGPS_LOGP>  (1) 
-3.31

>  <ALOGPS_LOGS>  (1) 
0.57

>  <ALOGPS_SOLUBILITY>  (1) 
4.92e+02 g/l

>  <DATABASE_ID>  (1) 
DB08847

>  <DATABASE_NAME>  (1) 
drugbank

>  <DRUGBANK_ID>  (1) 
DB08847

>  <DRUG_GROUPS>  (1) 
approved; experimental

>  <EXACT_MASS>  (1) 
131.058243159

>  <FORMULA>  (1) 
C5H9NO3

>  <GENERIC_NAME>  (1) 
Hydroxyproline

>  <INCHI_IDENTIFIER>  (1) 
InChI=1S/C5H9NO3/c7-3-1-4(5(8)9)6-2-3/h3-4,6-7H,1-2H2,(H,8,9)/t3-,4+/m1/s1

>  <INCHI_KEY>  (1) 
PMMYEEVYMWASQN-DMTCNVIQSA-N

>  <JCHEM_ACCEPTOR_COUNT>  (1) 
4

>  <JCHEM_AVERAGE_POLARIZABILITY>  (1) 
12.291927112580467

>  <JCHEM_BIOAVAILABILITY>  (1) 
1

>  <JCHEM_DONOR_COUNT>  (1) 
3

>  <JCHEM_FORMAL_CHARGE>  (1) 
0

>  <JCHEM_GHOSE_FILTER>  (1) 
0

>  <JCHEM_IUPAC>  (1) 
(2S,4R)-4-hydroxypyrrolidine-2-carboxylic acid

>  <JCHEM_LOGP>  (1) 
-3.7163188466782064

>  <JCHEM_MDDR_LIKE_RULE>  (1) 
0

>  <JCHEM_NUMBER_OF_RINGS>  (1) 
1

>  <JCHEM_PHYSIOLOGICAL_CHARGE>  (1) 
0

>  <JCHEM_PKA>  (1) 
14.856641323999913

>  <JCHEM_PKA_STRONGEST_ACIDIC>  (1) 
1.6413819507648544

>  <JCHEM_PKA_STRONGEST_BASIC>  (1) 
10.617096890348787

>  <JCHEM_POLAR_SURFACE_AREA>  (1) 
69.56

>  <JCHEM_REFRACTIVITY>  (1) 
29.3822

>  <JCHEM_ROTATABLE_BOND_COUNT>  (1) 
1

>  <JCHEM_RULE_OF_FIVE>  (1) 
1

>  <JCHEM_TRADITIONAL_IUPAC>  (1) 
hypro

>  <JCHEM_VEBER_RULE>  (1) 
0

>  <MOLECULAR_WEIGHT>  (1) 
131.1299

>  <PRODUCTS>  (1) 
Gongjinhyang Mi Luxury Foundation 2; Isa Knox Ageless Serum Makeup Base 10; Isa Knox Smart Bb Sun; Isaknox Ageless Serum Moist Pearl Base; O Hui Wrinkle Science Wrinkle Repair; OHUI Wrinkle Science wrinkle repair eye; Ohui The First Cell Revolution Age Control Sun Block; Ouhi Cell Power No 1 Essence; Sooryehan Onbit Essence Foundation 21

>  <SMILES>  (1) 
O[C@H]1CN[C@@H](C1)C(O)=O

$$$$
