
     RDKit          2D

 52 54  0  0  0  0  0  0  0  0999 V2000
   -1.4289    1.6500    0.0000 C   0  0  0  0  0  0  0  0  0  0  0  0
   -4.2868    6.6000    0.0000 C   0  0  0  0  0  0  0  0  0  0  0  0
   -5.0012    6.1875    0.0000 C   0  0  0  0  0  0  0  0  0  0  0  0
   -3.5723    6.1875    0.0000 C   0  0  0  0  0  0  0  0  0  0  0  0
   -4.2868    1.6500    0.0000 C   0  0  0  0  0  0  0  0  0  0  0  0
   -5.0012    5.3625    0.0000 C   0  0  0  0  0  0  0  0  0  0  0  0
   -3.5723    5.3625    0.0000 C   0  0  0  0  0  0  0  0  0  0  0  0
   -3.5723    1.2375    0.0000 C   0  0  0  0  0  0  0  0  0  0  0  0
   -4.2868    2.4750    0.0000 C   0  0  0  0  0  0  0  0  0  0  0  0
    1.4289    2.4750    0.0000 C   0  0  0  0  0  0  0  0  0  0  0  0
    0.7144    3.7125    0.0000 C   0  0  0  0  0  0  0  0  0  0  0  0
    2.1434    2.8875    0.0000 C   0  0  0  0  0  0  0  0  0  0  0  0
    1.4289    4.1250    0.0000 C   0  0  0  0  0  0  0  0  0  0  0  0
   -2.1434    2.8875    0.0000 C   0  0  0  0  0  0  0  0  0  0  0  0
   -0.7144    2.8875    0.0000 C   0  0  0  0  0  0  0  0  0  0  0  0
   -4.2868    4.9500    0.0000 C   0  0  0  0  0  0  0  0  0  0  0  0
   -2.8578    2.4750    0.0000 C   0  0  0  0  0  0  0  0  0  0  0  0
   -2.8578    1.6500    0.0000 C   0  0  0  0  0  0  0  0  0  0  0  0
   -3.5723    2.8875    0.0000 C   0  0  0  0  0  0  0  0  0  0  0  0
    0.0000    2.4750    0.0000 C   0  0  0  0  0  0  0  0  0  0  0  0
   -4.2868    4.1250    0.0000 C   0  0  0  0  0  0  0  0  0  0  0  0
   -2.1434    1.2375    0.0000 Cl  0  0  0  0  0  0  0  0  0  0  0  0
   -3.5723    3.7125    0.0000 N   0  0  0  0  0  0  0  0  0  0  0  0
   -1.4289    2.4750    0.0000 N   0  0  0  0  0  0  0  0  0  0  0  0
    0.7144    2.8875    0.0000 N   0  0  0  0  0  0  0  0  0  0  0  0
    0.0000    1.6500    0.0000 O   0  0  0  0  0  0  0  0  0  0  0  0
   -5.0012    3.7125    0.0000 O   0  0  0  0  0  0  0  0  0  0  0  0
    2.1434    3.7125    0.0000 O   0  0  0  0  0  0  0  0  0  0  0  0
    0.0000    0.0000    0.0000 H   0  0  0  0  0  0  0  0  0  0  0  0
    0.0000    0.0000    0.0000 H   0  0  0  0  0  0  0  0  0  0  0  0
    0.0000    0.0000    0.0000 H   0  0  0  0  0  0  0  0  0  0  0  0
    0.0000    0.0000    0.0000 H   0  0  0  0  0  0  0  0  0  0  0  0
    0.0000    0.0000    0.0000 H   0  0  0  0  0  0  0  0  0  0  0  0
    0.0000    0.0000    0.0000 H   0  0  0  0  0  0  0  0  0  0  0  0
    0.0000    0.0000    0.0000 H   0  0  0  0  0  0  0  0  0  0  0  0
    0.0000    0.0000    0.0000 H   0  0  0  0  0  0  0  0  0  0  0  0
    0.0000    0.0000    0.0000 H   0  0  0  0  0  0  0  0  0  0  0  0
    0.0000    0.0000    0.0000 H   0  0  0  0  0  0  0  0  0  0  0  0
    0.0000    0.0000    0.0000 H   0  0  0  0  0  0  0  0  0  0  0  0
    0.0000    0.0000    0.0000 H   0  0  0  0  0  0  0  0  0  0  0  0
    0.0000    0.0000    0.0000 H   0  0  0  0  0  0  0  0  0  0  0  0
    0.0000    0.0000    0.0000 H   0  0  0  0  0  0  0  0  0  0  0  0
    0.0000    0.0000    0.0000 H   0  0  0  0  0  0  0  0  0  0  0  0
    0.0000    0.0000    0.0000 H   0  0  0  0  0  0  0  0  0  0  0  0
    0.0000    0.0000    0.0000 H   0  0  0  0  0  0  0  0  0  0  0  0
    0.0000    0.0000    0.0000 H   0  0  0  0  0  0  0  0  0  0  0  0
    0.0000    0.0000    0.0000 H   0  0  0  0  0  0  0  0  0  0  0  0
    0.0000    0.0000    0.0000 H   0  0  0  0  0  0  0  0  0  0  0  0
    0.0000    0.0000    0.0000 H   0  0  0  0  0  0  0  0  0  0  0  0
    0.0000    0.0000    0.0000 H   0  0  0  0  0  0  0  0  0  0  0  0
    0.0000    0.0000    0.0000 H   0  0  0  0  0  0  0  0  0  0  0  0
    0.0000    0.0000    0.0000 H   0  0  0  0  0  0  0  0  0  0  0  0
  3  2  2  0
  4  2  1  0
  6  3  1  0
  7  4  2  0
  8  5  2  0
  9  5  1  0
 12 10  1  0
 13 11  1  0
 16  6  2  0
 16  7  1  0
 17 14  1  0
 18  8  1  0
 18 17  2  0
 19  9  2  0
 19 17  1  0
 20 15  1  0
 21 16  1  0
 22 18  1  0
 23 19  1  0
 23 21  2  3
 24  1  1  0
 24 14  1  0
 24 15  1  0
 25 10  1  0
 25 11  1  0
 25 20  1  0
 26 20  2  0
 27 21  1  0
 28 12  1  0
 28 13  1  0
  1 29  1  0
  1 30  1  0
  1 31  1  0
  2 32  1  0
  3 33  1  0
  4 34  1  0
  5 35  1  0
  6 36  1  0
  7 37  1  0
  8 38  1  0
  9 39  1  0
 10 40  1  0
 10 41  1  0
 11 42  1  0
 11 43  1  0
 12 44  1  0
 12 45  1  0
 13 46  1  0
 13 47  1  0
 14 48  1  0
 14 49  1  0
 15 50  1  0
 15 51  1  0
 27 52  1  0
M  END
>  <ALOGPS_LOGP>  (1) 
2.56

>  <ALOGPS_LOGS>  (1) 
-3.79

>  <ALOGPS_SOLUBILITY>  (1) 
6.56e-02 g/l

>  <DATABASE_ID>  (1) 
DB08968

>  <DATABASE_NAME>  (1) 
drugbank

>  <DRUGBANK_ID>  (1) 
DB08968

>  <DRUG_GROUPS>  (1) 
approved; withdrawn

>  <EXACT_MASS>  (1) 
401.150619356

>  <FORMULA>  (1) 
C21H24ClN3O3

>  <GENERIC_NAME>  (1) 
Fominoben

>  <INCHI_IDENTIFIER>  (1) 
InChI=1S/C21H24ClN3O3/c1-24(15-20(26)25-10-12-28-13-11-25)14-17-18(22)8-5-9-19(17)23-21(27)16-6-3-2-4-7-16/h2-9H,10-15H2,1H3,(H,23,27)

>  <INCHI_KEY>  (1) 
KSNNEUZOAFRTDS-UHFFFAOYSA-N

>  <JCHEM_ACCEPTOR_COUNT>  (1) 
5

>  <JCHEM_AVERAGE_POLARIZABILITY>  (1) 
41.39813458025831

>  <JCHEM_BIOAVAILABILITY>  (1) 
1

>  <JCHEM_DONOR_COUNT>  (1) 
1

>  <JCHEM_FORMAL_CHARGE>  (1) 
0

>  <JCHEM_GHOSE_FILTER>  (1) 
1

>  <JCHEM_IUPAC>  (1) 
N-[3-chloro-2-({methyl[2-(morpholin-4-yl)-2-oxoethyl]amino}methyl)phenyl]benzenecarboximidic acid

>  <JCHEM_LOGP>  (1) 
2.954357702592874

>  <JCHEM_MDDR_LIKE_RULE>  (1) 
1

>  <JCHEM_NUMBER_OF_RINGS>  (1) 
3

>  <JCHEM_PHYSIOLOGICAL_CHARGE>  (1) 
0

>  <JCHEM_PKA_STRONGEST_ACIDIC>  (1) 
6.838048353060415

>  <JCHEM_PKA_STRONGEST_BASIC>  (1) 
5.706426066996914

>  <JCHEM_POLAR_SURFACE_AREA>  (1) 
65.37

>  <JCHEM_REFRACTIVITY>  (1) 
112.46879999999997

>  <JCHEM_ROTATABLE_BOND_COUNT>  (1) 
6

>  <JCHEM_RULE_OF_FIVE>  (1) 
1

>  <JCHEM_TRADITIONAL_IUPAC>  (1) 
N-[3-chloro-2-({methyl[2-(morpholin-4-yl)-2-oxoethyl]amino}methyl)phenyl]benzenecarboximidic acid

>  <JCHEM_VEBER_RULE>  (1) 
0

>  <MOLECULAR_WEIGHT>  (1) 
401.887

>  <SMILES>  (1) 
CN(CC(=O)N1CCOCC1)CC1=C(Cl)C=CC=C1N=C(O)C1=CC=CC=C1

$$$$
