[NO NAME]
     RDKit          2D

 64 68  0  0  1  0  0  0  0  0999 V2000
   14.7457   -8.3769    0.0000 N   0  0  0  0  0  0  0  0  0  0  0  0
   15.3644   -8.8718    0.0000 C   0  0  0  0  0  0  0  0  0  0  0  0
   14.0033   -8.6244    0.0000 C   0  0  0  0  0  0  0  0  0  0  0  0
   15.1170   -7.5519    0.0000 N   0  0  0  0  0  0  0  0  0  0  0  0
   16.1069   -8.4181    0.0000 C   0  0  0  0  0  0  0  0  0  0  0  0
   15.3232   -9.7381    0.0000 N   0  0  0  0  0  0  0  0  0  0  0  0
   13.3433   -8.1293    0.0000 C   0  0  0  0  0  0  0  0  0  0  0  0
   13.7558   -9.3668    0.0000 C   0  0  0  0  0  0  0  0  0  0  0  0
   15.9832   -7.6756    0.0000 N   0  0  0  0  0  0  0  0  0  0  0  0
   16.8082   -8.8306    0.0000 C   0  0  0  0  0  0  0  0  0  0  0  0
   16.0657  -10.1505    0.0000 C   0  0  0  0  0  0  0  0  0  0  0  0
   12.6833   -8.5831    0.0000 C   0  0  0  0  0  0  0  0  0  0  0  0
   12.9308   -9.3668    0.0000 C   0  0  0  0  0  0  0  0  0  0  0  0
   14.2095  -10.0268    0.0000 O   0  0  0  0  0  0  0  0  0  0  0  0
   16.8494   -9.6968    0.0000 N   0  0  0  0  0  0  0  0  0  0  0  0
   17.5506   -8.4181    0.0000 N   0  0  0  0  0  0  0  0  0  0  0  0
   11.8996   -8.3356    0.0000 O   0  0  0  0  0  0  0  0  0  0  0  0
   12.6833  -10.1093    0.0000 O   0  0  0  0  0  0  0  0  0  0  0  0
   16.0245  -10.9343    0.0000 S   0  0  0  0  0  0  0  0  0  0  0  0
   16.7669  -11.3468    0.0000 C   0  0  0  0  0  0  0  0  0  0  0  0
   17.4682  -10.9343    0.0000 C   0  0  0  0  0  0  0  0  0  0  0  0
   11.1852   -8.7481    0.0000 C   0  0  0  0  0  0  0  0  0  0  0  0
   10.4707   -8.3356    0.0000 C   0  0  0  0  0  0  0  0  0  0  0  0
    9.7563   -8.7481    0.0000 O   0  0  0  0  0  0  0  0  0  0  0  0
   18.1859  -11.3409    0.0000 C   0  0  0  0  0  0  0  0  0  0  0  0
   18.3547   -9.0215    0.0000 C   0  0  0  0  0  0  0  0  0  0  0  0
   19.1824   -9.0442    0.0000 C   0  0  0  0  0  0  0  0  0  0  0  0
   18.7505   -8.3005    0.0000 C   0  0  0  0  0  0  0  0  0  0  0  0
   19.9016   -9.4717    0.0000 C   0  0  0  0  0  0  0  0  0  0  0  0
   19.8910  -10.3155    0.0000 C   0  0  0  0  0  0  0  0  0  0  0  0
   20.6001  -10.7370    0.0000 C   0  0  0  0  0  0  0  0  0  0  0  0
   21.3610  -10.3336    0.0000 C   0  0  0  0  0  0  0  0  0  0  0  0
   21.3305   -9.4898    0.0000 C   0  0  0  0  0  0  0  0  0  0  0  0
   20.6213   -9.0683    0.0000 C   0  0  0  0  0  0  0  0  0  0  0  0
   20.5898  -11.5529    0.0000 F   0  0  0  0  0  0  0  0  0  0  0  0
   22.0096  -10.7434    0.0000 F   0  0  0  0  0  0  0  0  0  0  0  0
    0.0000    0.0000    0.0000 H   0  0  0  0  0  0  0  0  0  0  0  0
    0.0000    0.0000    0.0000 H   0  0  0  0  0  0  0  0  0  0  0  0
    0.0000    0.0000    0.0000 H   0  0  0  0  0  0  0  0  0  0  0  0
    0.0000    0.0000    0.0000 H   0  0  0  0  0  0  0  0  0  0  0  0
    0.0000    0.0000    0.0000 H   0  0  0  0  0  0  0  0  0  0  0  0
    0.0000    0.0000    0.0000 H   0  0  0  0  0  0  0  0  0  0  0  0
    0.0000    0.0000    0.0000 H   0  0  0  0  0  0  0  0  0  0  0  0
    0.0000    0.0000    0.0000 H   0  0  0  0  0  0  0  0  0  0  0  0
    0.0000    0.0000    0.0000 H   0  0  0  0  0  0  0  0  0  0  0  0
    0.0000    0.0000    0.0000 H   0  0  0  0  0  0  0  0  0  0  0  0
    0.0000    0.0000    0.0000 H   0  0  0  0  0  0  0  0  0  0  0  0
    0.0000    0.0000    0.0000 H   0  0  0  0  0  0  0  0  0  0  0  0
    0.0000    0.0000    0.0000 H   0  0  0  0  0  0  0  0  0  0  0  0
    0.0000    0.0000    0.0000 H   0  0  0  0  0  0  0  0  0  0  0  0
    0.0000    0.0000    0.0000 H   0  0  0  0  0  0  0  0  0  0  0  0
    0.0000    0.0000    0.0000 H   0  0  0  0  0  0  0  0  0  0  0  0
    0.0000    0.0000    0.0000 H   0  0  0  0  0  0  0  0  0  0  0  0
    0.0000    0.0000    0.0000 H   0  0  0  0  0  0  0  0  0  0  0  0
    0.0000    0.0000    0.0000 H   0  0  0  0  0  0  0  0  0  0  0  0
    0.0000    0.0000    0.0000 H   0  0  0  0  0  0  0  0  0  0  0  0
    0.0000    0.0000    0.0000 H   0  0  0  0  0  0  0  0  0  0  0  0
    0.0000    0.0000    0.0000 H   0  0  0  0  0  0  0  0  0  0  0  0
    0.0000    0.0000    0.0000 H   0  0  0  0  0  0  0  0  0  0  0  0
    0.0000    0.0000    0.0000 H   0  0  0  0  0  0  0  0  0  0  0  0
    0.0000    0.0000    0.0000 H   0  0  0  0  0  0  0  0  0  0  0  0
    0.0000    0.0000    0.0000 H   0  0  0  0  0  0  0  0  0  0  0  0
    0.0000    0.0000    0.0000 H   0  0  0  0  0  0  0  0  0  0  0  0
    0.0000    0.0000    0.0000 H   0  0  0  0  0  0  0  0  0  0  0  0
  1  2  1  0
  3  1  1  6
  1  4  1  0
  2  5  2  0
  2  6  1  0
  3  7  1  0
  3  8  1  0
  4  9  2  0
  5 10  1  0
  6 11  2  0
  7 12  1  0
  8 13  1  0
  8 14  1  1
 10 15  2  0
 10 16  1  0
 12 17  1  1
 13 18  1  6
  5  9  1  0
 11 15  1  0
 12 13  1  0
 11 19  1  0
 19 20  1  0
 20 21  1  0
 17 22  1  0
 22 23  1  0
 23 24  1  0
 21 25  1  0
 26 27  1  0
 27 28  1  0
 28 26  1  0
 26 16  1  6
 29 30  2  0
 30 31  1  0
 31 32  2  0
 32 33  1  0
 33 34  2  0
 29 34  1  0
 31 35  1  0
 32 36  1  0
 27 29  1  6
  3 37  1  0
  7 38  1  0
  7 39  1  0
  8 40  1  0
 12 41  1  0
 13 42  1  0
 14 43  1  0
 16 44  1  0
 18 45  1  0
 20 46  1  0
 20 47  1  0
 21 48  1  0
 21 49  1  0
 22 50  1  0
 22 51  1  0
 23 52  1  0
 23 53  1  0
 24 54  1  0
 25 55  1  0
 25 56  1  0
 25 57  1  0
 26 58  1  0
 27 59  1  0
 28 60  1  0
 28 61  1  0
 30 62  1  0
 33 63  1  0
 34 64  1  0
M  END
>  <ALOGPS_LOGP>  (1) 
2.31

>  <ALOGPS_LOGS>  (1) 
-3.92

>  <ALOGPS_SOLUBILITY>  (1) 
6.30e-02 g/l

>  <DATABASE_ID>  (1) 
DB08816

>  <DATABASE_NAME>  (1) 
drugbank

>  <DRUGBANK_ID>  (1) 
DB08816

>  <DRUG_GROUPS>  (1) 
approved

>  <EXACT_MASS>  (1) 
522.186080514

>  <FORMULA>  (1) 
C23H28F2N6O4S

>  <GENERIC_NAME>  (1) 
Ticagrelor

>  <INCHI_IDENTIFIER>  (1) 
InChI=1S/C23H28F2N6O4S/c1-2-7-36-23-27-21(26-15-9-12(15)11-3-4-13(24)14(25)8-11)18-22(28-23)31(30-29-18)16-10-17(35-6-5-32)20(34)19(16)33/h3-4,8,12,15-17,19-20,32-34H,2,5-7,9-10H2,1H3,(H,26,27,28)/t12-,15+,16+,17-,19-,20+/m0/s1

>  <INCHI_KEY>  (1) 
OEKWJQXRCDYSHL-FNOIDJSQSA-N

>  <INTERNATIONAL_BRANDS>  (1) 
Brilique; Possia

>  <JCHEM_ACCEPTOR_COUNT>  (1) 
9

>  <JCHEM_AVERAGE_POLARIZABILITY>  (1) 
51.270823465506936

>  <JCHEM_BIOAVAILABILITY>  (1) 
1

>  <JCHEM_DONOR_COUNT>  (1) 
4

>  <JCHEM_FORMAL_CHARGE>  (1) 
0

>  <JCHEM_GHOSE_FILTER>  (1) 
0

>  <JCHEM_IUPAC>  (1) 
(1S,2S,3R,5S)-3-(7-{[(1R,2S)-2-(3,4-difluorophenyl)cyclopropyl]amino}-5-(propylsulfanyl)-3H-[1,2,3]triazolo[4,5-d]pyrimidin-3-yl)-5-(2-hydroxyethoxy)cyclopentane-1,2-diol

>  <JCHEM_LOGP>  (1) 
2.278667876

>  <JCHEM_MDDR_LIKE_RULE>  (1) 
1

>  <JCHEM_NUMBER_OF_RINGS>  (1) 
5

>  <JCHEM_PHYSIOLOGICAL_CHARGE>  (1) 
0

>  <JCHEM_PKA>  (1) 
14.286616680378671

>  <JCHEM_PKA_STRONGEST_ACIDIC>  (1) 
12.944779697260653

>  <JCHEM_PKA_STRONGEST_BASIC>  (1) 
2.934235339719196

>  <JCHEM_POLAR_SURFACE_AREA>  (1) 
138.44

>  <JCHEM_REFRACTIVITY>  (1) 
142.1331999999999

>  <JCHEM_ROTATABLE_BOND_COUNT>  (1) 
10

>  <JCHEM_RULE_OF_FIVE>  (1) 
0

>  <JCHEM_TRADITIONAL_IUPAC>  (1) 
ticagrelor

>  <JCHEM_VEBER_RULE>  (1) 
0

>  <MOLECULAR_WEIGHT>  (1) 
522.568

>  <PRODUCTS>  (1) 
Brilinta; Brilique

>  <SECONDARY_ACCESSION_NUMBERS>  (1) 
DB04902

>  <SMILES>  (1) 
CCCSC1=NC2=C(N=NN2[C@@H]2C[C@H](OCCO)[C@@H](O)[C@H]2O)C(N[C@@H]2C[C@H]2C2=CC(F)=C(F)C=C2)=N1

$$$$
