
     RDKit          2D

 56 59  0  0  1  0  0  0  0  0999 V2000
    7.9466   -8.7523    0.0000 C   0  0  0  0  0  0  0  0  0  0  0  0
    8.6622   -9.1627    0.0000 C   0  0  0  0  0  0  0  0  0  0  0  0
    9.3756   -8.7482    0.0000 C   0  0  0  0  0  0  0  0  0  0  0  0
    9.3732   -7.9232    0.0000 C   0  0  0  0  0  0  0  0  0  0  0  0
    8.6576   -7.5127    0.0000 O   0  0  0  0  0  0  0  0  0  0  0  0
    7.9443   -7.9273    0.0000 C   0  0  0  0  0  0  0  0  0  0  0  0
    7.2286   -7.5168    0.0000 C   0  0  0  0  0  0  0  0  0  0  0  0
    8.6646   -9.9877    0.0000 O   0  0  0  0  0  0  0  0  0  0  0  0
   10.1576   -7.6683    0.0000 C   0  0  0  0  0  0  0  0  0  0  0  0
   10.0911   -9.1588    0.0000 O   0  0  0  0  0  0  0  0  0  0  0  0
    7.2333   -9.1668    0.0000 O   0  0  0  0  0  0  0  0  0  0  0  0
    7.2263   -6.6918    0.0000 O   0  0  0  0  0  0  0  0  0  0  0  0
   10.7707   -8.2203    0.0000 C   0  0  0  0  0  0  0  0  0  0  0  0
   11.5553   -7.9654    0.0000 C   0  0  0  0  0  0  0  0  0  0  0  0
   11.7268   -7.1584    0.0000 C   0  0  0  0  0  0  0  0  0  0  0  0
   11.1137   -6.6063    0.0000 C   0  0  0  0  0  0  0  0  0  0  0  0
   10.3291   -6.8613    0.0000 C   0  0  0  0  0  0  0  0  0  0  0  0
   12.5114   -6.9035    0.0000 C   0  0  0  0  0  0  0  0  0  0  0  0
   11.2853   -5.7994    0.0000 C   0  0  0  0  0  0  0  0  0  0  0  0
   12.0699   -5.5444    0.0000 C   0  0  0  0  0  0  0  0  0  0  0  0
   12.7373   -6.0294    0.0000 S   0  0  0  0  0  0  0  0  0  0  0  0
   13.4048   -5.5444    0.0000 C   0  0  0  0  0  0  0  0  0  0  0  0
   13.1498   -4.7598    0.0000 C   0  0  0  0  0  0  0  0  0  0  0  0
   12.3248   -4.7598    0.0000 C   0  0  0  0  0  0  0  0  0  0  0  0
   14.1894   -5.7994    0.0000 C   0  0  0  0  0  0  0  0  0  0  0  0
   14.3609   -6.6063    0.0000 C   0  0  0  0  0  0  0  0  0  0  0  0
   15.1455   -6.8613    0.0000 C   0  0  0  0  0  0  0  0  0  0  0  0
   15.7586   -6.3093    0.0000 C   0  0  0  0  0  0  0  0  0  0  0  0
   15.5871   -5.5023    0.0000 C   0  0  0  0  0  0  0  0  0  0  0  0
   14.8025   -5.2473    0.0000 C   0  0  0  0  0  0  0  0  0  0  0  0
   16.5433   -6.5642    0.0000 F   0  0  0  0  0  0  0  0  0  0  0  0
    0.0000    0.0000    0.0000 H   0  0  0  0  0  0  0  0  0  0  0  0
    0.0000    0.0000    0.0000 H   0  0  0  0  0  0  0  0  0  0  0  0
    0.0000    0.0000    0.0000 H   0  0  0  0  0  0  0  0  0  0  0  0
    0.0000    0.0000    0.0000 H   0  0  0  0  0  0  0  0  0  0  0  0
    0.0000    0.0000    0.0000 H   0  0  0  0  0  0  0  0  0  0  0  0
    0.0000    0.0000    0.0000 H   0  0  0  0  0  0  0  0  0  0  0  0
    0.0000    0.0000    0.0000 H   0  0  0  0  0  0  0  0  0  0  0  0
    0.0000    0.0000    0.0000 H   0  0  0  0  0  0  0  0  0  0  0  0
    0.0000    0.0000    0.0000 H   0  0  0  0  0  0  0  0  0  0  0  0
    0.0000    0.0000    0.0000 H   0  0  0  0  0  0  0  0  0  0  0  0
    0.0000    0.0000    0.0000 H   0  0  0  0  0  0  0  0  0  0  0  0
    0.0000    0.0000    0.0000 H   0  0  0  0  0  0  0  0  0  0  0  0
    0.0000    0.0000    0.0000 H   0  0  0  0  0  0  0  0  0  0  0  0
    0.0000    0.0000    0.0000 H   0  0  0  0  0  0  0  0  0  0  0  0
    0.0000    0.0000    0.0000 H   0  0  0  0  0  0  0  0  0  0  0  0
    0.0000    0.0000    0.0000 H   0  0  0  0  0  0  0  0  0  0  0  0
    0.0000    0.0000    0.0000 H   0  0  0  0  0  0  0  0  0  0  0  0
    0.0000    0.0000    0.0000 H   0  0  0  0  0  0  0  0  0  0  0  0
    0.0000    0.0000    0.0000 H   0  0  0  0  0  0  0  0  0  0  0  0
    0.0000    0.0000    0.0000 H   0  0  0  0  0  0  0  0  0  0  0  0
    0.0000    0.0000    0.0000 H   0  0  0  0  0  0  0  0  0  0  0  0
    0.0000    0.0000    0.0000 H   0  0  0  0  0  0  0  0  0  0  0  0
    0.0000    0.0000    0.0000 H   0  0  0  0  0  0  0  0  0  0  0  0
    0.0000    0.0000    0.0000 H   0  0  0  0  0  0  0  0  0  0  0  0
    0.0000    0.0000    0.0000 H   0  0  0  0  0  0  0  0  0  0  0  0
  1  2  1  0
  2  3  1  0
  3  4  1  0
  4  5  1  0
  5  6  1  0
  1  6  1  0
  6  7  1  1
  2  8  1  6
  4  9  1  1
  3 10  1  1
  1 11  1  6
  7 12  1  0
  9 13  2  0
 13 14  1  0
 14 15  2  0
 15 16  1  0
 16 17  2  0
  9 17  1  0
 15 18  1  0
 16 19  1  0
 19 20  1  0
 20 21  1  0
 21 22  1  0
 22 23  2  0
 23 24  1  0
 20 24  2  0
 22 25  1  0
 25 26  2  0
 26 27  1  0
 27 28  2  0
 28 29  1  0
 29 30  2  0
 25 30  1  0
 28 31  1  0
  1 32  1  0
  2 33  1  0
  3 34  1  0
  4 35  1  0
  6 36  1  0
  7 37  1  0
  7 38  1  0
  8 39  1  0
 10 40  1  0
 11 41  1  0
 12 42  1  0
 13 43  1  0
 14 44  1  0
 17 45  1  0
 18 46  1  0
 18 47  1  0
 18 48  1  0
 19 49  1  0
 19 50  1  0
 23 51  1  0
 24 52  1  0
 26 53  1  0
 27 54  1  0
 29 55  1  0
 30 56  1  0
M  END
>  <ALOGPS_LOGP>  (1) 
3.09

>  <ALOGPS_LOGS>  (1) 
-5.00

>  <ALOGPS_SOLUBILITY>  (1) 
4.50e-03 g/l

>  <DATABASE_ID>  (1) 
DB08907

>  <DATABASE_NAME>  (1) 
drugbank

>  <DRUGBANK_ID>  (1) 
DB08907

>  <DRUG_GROUPS>  (1) 
approved

>  <EXACT_MASS>  (1) 
444.140672805

>  <FORMULA>  (1) 
C24H25FO5S

>  <GENERIC_NAME>  (1) 
Canagliflozin

>  <INCHI_IDENTIFIER>  (1) 
InChI=1S/C24H25FO5S/c1-13-2-3-15(24-23(29)22(28)21(27)19(12-26)30-24)10-16(13)11-18-8-9-20(31-18)14-4-6-17(25)7-5-14/h2-10,19,21-24,26-29H,11-12H2,1H3/t19-,21-,22+,23-,24+/m1/s1

>  <INCHI_KEY>  (1) 
XTNGUQKDFGDXSJ-ZXGKGEBGSA-N

>  <JCHEM_ACCEPTOR_COUNT>  (1) 
5

>  <JCHEM_AVERAGE_POLARIZABILITY>  (1) 
46.50059656168001

>  <JCHEM_BIOAVAILABILITY>  (1) 
1

>  <JCHEM_DONOR_COUNT>  (1) 
4

>  <JCHEM_FORMAL_CHARGE>  (1) 
0

>  <JCHEM_GHOSE_FILTER>  (1) 
1

>  <JCHEM_IUPAC>  (1) 
(2S,3R,4R,5S,6R)-2-(3-{[5-(4-fluorophenyl)thiophen-2-yl]methyl}-4-methylphenyl)-6-(hydroxymethyl)oxane-3,4,5-triol

>  <JCHEM_LOGP>  (1) 
3.520655085333334

>  <JCHEM_MDDR_LIKE_RULE>  (1) 
0

>  <JCHEM_NUMBER_OF_RINGS>  (1) 
4

>  <JCHEM_PHYSIOLOGICAL_CHARGE>  (1) 
0

>  <JCHEM_PKA>  (1) 
13.464593647746792

>  <JCHEM_PKA_STRONGEST_ACIDIC>  (1) 
12.573369338521744

>  <JCHEM_PKA_STRONGEST_BASIC>  (1) 
-2.9791903690129615

>  <JCHEM_POLAR_SURFACE_AREA>  (1) 
90.15

>  <JCHEM_REFRACTIVITY>  (1) 
116.13530000000002

>  <JCHEM_ROTATABLE_BOND_COUNT>  (1) 
5

>  <JCHEM_RULE_OF_FIVE>  (1) 
1

>  <JCHEM_TRADITIONAL_IUPAC>  (1) 
(2S,3R,4R,5S,6R)-2-(3-{[5-(4-fluorophenyl)thiophen-2-yl]methyl}-4-methylphenyl)-6-(hydroxymethyl)oxane-3,4,5-triol

>  <JCHEM_VEBER_RULE>  (1) 
0

>  <MOLECULAR_WEIGHT>  (1) 
444.516

>  <PRODUCTS>  (1) 
Invokamet; Invokamet XR; Invokana

>  <SALTS>  (1) 
Canagliflozin hydrate

>  <SMILES>  (1) 
[H][C@]1(O[C@H](CO)[C@@H](O)[C@H](O)[C@H]1O)C1=CC=C(C)C(CC2=CC=C(S2)C2=CC=C(F)C=C2)=C1

>  <SYNONYMS>  (1) 
Canagliflozin anhydrous

$$$$
