 
     RDKit          2D

 77 79  0  0  0  0  0  0  0  0999 V2000
   13.2180  -12.2559    0.0000 O   0  0  0  0  0  0  0  0  0  0  0  0
   13.9291  -11.8377    0.0000 C   0  0  0  0  0  0  0  0  0  0  0  0
   14.6820  -12.2559    0.0000 C   0  0  0  0  0  0  0  0  0  0  0  0
   15.3931  -11.8377    0.0000 C   0  0  0  0  0  0  0  0  0  0  0  0
   16.1042  -12.2559    0.0000 O   0  0  0  0  0  0  0  0  0  0  0  0
   14.6820  -13.0925    0.0000 O   0  0  0  0  0  0  0  0  0  0  0  0
   16.8572  -11.8377    0.0000 C   0  0  0  0  0  0  0  0  0  0  0  0
   17.5682  -12.2559    0.0000 C   0  0  0  0  0  0  0  0  0  0  0  0
   16.8572  -11.0011    0.0000 O   0  0  0  0  0  0  0  0  0  0  0  0
   18.2793  -11.8377    0.0000 C   0  0  0  0  0  0  0  0  0  0  0  0
   18.9904  -12.2559    0.0000 C   0  0  0  0  0  0  0  0  0  0  0  0
   19.7015  -11.8377    0.0000 C   0  0  0  0  0  0  0  0  0  0  0  0
   20.4126  -12.2559    0.0000 C   0  0  0  0  0  0  0  0  0  0  0  0
   21.1656  -11.8377    0.0000 C   0  0  0  0  0  0  0  0  0  0  0  0
   21.1656  -10.9592    0.0000 C   0  0  0  0  0  0  0  0  0  0  0  0
   20.4126  -10.5828    0.0000 C   0  0  0  0  0  0  0  0  0  0  0  0
   19.7015  -11.0011    0.0000 C   0  0  0  0  0  0  0  0  0  0  0  0
   12.4651  -11.8377    0.0000 C   0  0  0  0  0  0  0  0  0  0  0  0
   12.4651  -11.0011    0.0000 O   0  0  0  0  0  0  0  0  0  0  0  0
   11.7540  -12.2559    0.0000 C   0  0  0  0  0  0  0  0  0  0  0  0
   11.0429  -11.8377    0.0000 C   0  0  0  0  0  0  0  0  0  0  0  0
   10.3318  -12.2559    0.0000 C   0  0  0  0  0  0  0  0  0  0  0  0
    9.6207  -11.8377    0.0000 C   0  0  0  0  0  0  0  0  0  0  0  0
    9.6207  -11.0011    0.0000 C   0  0  0  0  0  0  0  0  0  0  0  0
    8.9096  -10.5409    0.0000 C   0  0  0  0  0  0  0  0  0  0  0  0
    8.1567  -11.0011    0.0000 C   0  0  0  0  0  0  0  0  0  0  0  0
    8.1567  -11.8377    0.0000 C   0  0  0  0  0  0  0  0  0  0  0  0
    8.9096  -12.2559    0.0000 C   0  0  0  0  0  0  0  0  0  0  0  0
   15.3931  -13.5108    0.0000 C   0  0  0  0  0  0  0  0  0  0  0  0
   16.1461  -13.0925    0.0000 C   0  0  0  0  0  0  0  0  0  0  0  0
   15.3931  -14.3474    0.0000 O   0  0  0  0  0  0  0  0  0  0  0  0
   16.8572  -13.5108    0.0000 C   0  0  0  0  0  0  0  0  0  0  0  0
   17.5682  -13.0925    0.0000 C   0  0  0  0  0  0  0  0  0  0  0  0
   18.2793  -13.5108    0.0000 C   0  0  0  0  0  0  0  0  0  0  0  0
   18.2793  -14.3474    0.0000 C   0  0  0  0  0  0  0  0  0  0  0  0
   18.9904  -14.7657    0.0000 C   0  0  0  0  0  0  0  0  0  0  0  0
   19.7434  -14.3474    0.0000 C   0  0  0  0  0  0  0  0  0  0  0  0
   19.7434  -13.5108    0.0000 C   0  0  0  0  0  0  0  0  0  0  0  0
   18.9904  -13.0925    0.0000 C   0  0  0  0  0  0  0  0  0  0  0  0
    0.0000    0.0000    0.0000 H   0  0  0  0  0  0  0  0  0  0  0  0
    0.0000    0.0000    0.0000 H   0  0  0  0  0  0  0  0  0  0  0  0
    0.0000    0.0000    0.0000 H   0  0  0  0  0  0  0  0  0  0  0  0
    0.0000    0.0000    0.0000 H   0  0  0  0  0  0  0  0  0  0  0  0
    0.0000    0.0000    0.0000 H   0  0  0  0  0  0  0  0  0  0  0  0
    0.0000    0.0000    0.0000 H   0  0  0  0  0  0  0  0  0  0  0  0
    0.0000    0.0000    0.0000 H   0  0  0  0  0  0  0  0  0  0  0  0
    0.0000    0.0000    0.0000 H   0  0  0  0  0  0  0  0  0  0  0  0
    0.0000    0.0000    0.0000 H   0  0  0  0  0  0  0  0  0  0  0  0
    0.0000    0.0000    0.0000 H   0  0  0  0  0  0  0  0  0  0  0  0
    0.0000    0.0000    0.0000 H   0  0  0  0  0  0  0  0  0  0  0  0
    0.0000    0.0000    0.0000 H   0  0  0  0  0  0  0  0  0  0  0  0
    0.0000    0.0000    0.0000 H   0  0  0  0  0  0  0  0  0  0  0  0
    0.0000    0.0000    0.0000 H   0  0  0  0  0  0  0  0  0  0  0  0
    0.0000    0.0000    0.0000 H   0  0  0  0  0  0  0  0  0  0  0  0
    0.0000    0.0000    0.0000 H   0  0  0  0  0  0  0  0  0  0  0  0
    0.0000    0.0000    0.0000 H   0  0  0  0  0  0  0  0  0  0  0  0
    0.0000    0.0000    0.0000 H   0  0  0  0  0  0  0  0  0  0  0  0
    0.0000    0.0000    0.0000 H   0  0  0  0  0  0  0  0  0  0  0  0
    0.0000    0.0000    0.0000 H   0  0  0  0  0  0  0  0  0  0  0  0
    0.0000    0.0000    0.0000 H   0  0  0  0  0  0  0  0  0  0  0  0
    0.0000    0.0000    0.0000 H   0  0  0  0  0  0  0  0  0  0  0  0
    0.0000    0.0000    0.0000 H   0  0  0  0  0  0  0  0  0  0  0  0
    0.0000    0.0000    0.0000 H   0  0  0  0  0  0  0  0  0  0  0  0
    0.0000    0.0000    0.0000 H   0  0  0  0  0  0  0  0  0  0  0  0
    0.0000    0.0000    0.0000 H   0  0  0  0  0  0  0  0  0  0  0  0
    0.0000    0.0000    0.0000 H   0  0  0  0  0  0  0  0  0  0  0  0
    0.0000    0.0000    0.0000 H   0  0  0  0  0  0  0  0  0  0  0  0
    0.0000    0.0000    0.0000 H   0  0  0  0  0  0  0  0  0  0  0  0
    0.0000    0.0000    0.0000 H   0  0  0  0  0  0  0  0  0  0  0  0
    0.0000    0.0000    0.0000 H   0  0  0  0  0  0  0  0  0  0  0  0
    0.0000    0.0000    0.0000 H   0  0  0  0  0  0  0  0  0  0  0  0
    0.0000    0.0000    0.0000 H   0  0  0  0  0  0  0  0  0  0  0  0
    0.0000    0.0000    0.0000 H   0  0  0  0  0  0  0  0  0  0  0  0
    0.0000    0.0000    0.0000 H   0  0  0  0  0  0  0  0  0  0  0  0
    0.0000    0.0000    0.0000 H   0  0  0  0  0  0  0  0  0  0  0  0
    0.0000    0.0000    0.0000 H   0  0  0  0  0  0  0  0  0  0  0  0
    0.0000    0.0000    0.0000 H   0  0  0  0  0  0  0  0  0  0  0  0
  1  2  1  0
  2  3  1  0
  3  4  1  0
  4  5  1  0
  3  6  1  0
  5  7  1  0
  7  8  1  0
  7  9  2  0
  8 10  1  0
 10 11  1  0
 11 12  1  0
 12 13  2  0
 13 14  1  0
 14 15  2  0
 15 16  1  0
 16 17  2  0
 12 17  1  0
  1 18  1  0
 18 19  2  0
 18 20  1  0
 20 21  1  0
 21 22  1  0
 22 23  1  0
 23 24  2  0
 24 25  1  0
 25 26  2  0
 26 27  1  0
 27 28  2  0
 23 28  1  0
  6 29  1  0
 29 30  1  0
 29 31  2  0
 30 32  1  0
 32 33  1  0
 33 34  1  0
 34 35  2  0
 35 36  1  0
 36 37  2  0
 37 38  1  0
 38 39  2  0
 34 39  1  0
  2 40  1  0
  2 41  1  0
  3 42  1  0
  4 43  1  0
  4 44  1  0
  8 45  1  0
  8 46  1  0
 10 47  1  0
 10 48  1  0
 11 49  1  0
 11 50  1  0
 13 51  1  0
 14 52  1  0
 15 53  1  0
 16 54  1  0
 17 55  1  0
 20 56  1  0
 20 57  1  0
 21 58  1  0
 21 59  1  0
 22 60  1  0
 22 61  1  0
 24 62  1  0
 25 63  1  0
 26 64  1  0
 27 65  1  0
 28 66  1  0
 30 67  1  0
 30 68  1  0
 32 69  1  0
 32 70  1  0
 33 71  1  0
 33 72  1  0
 35 73  1  0
 36 74  1  0
 37 75  1  0
 38 76  1  0
 39 77  1  0
M  END
>  <ALOGPS_LOGP>  (1) 
6.41

>  <ALOGPS_LOGS>  (1) 
-7.02

>  <ALOGPS_SOLUBILITY>  (1) 
5.09e-05 g/l

>  <DATABASE_ID>  (1) 
DB08909

>  <DATABASE_NAME>  (1) 
drugbank

>  <DRUGBANK_ID>  (1) 
DB08909

>  <DRUG_GROUPS>  (1) 
approved

>  <EXACT_MASS>  (1) 
530.266838948

>  <FORMULA>  (1) 
C33H38O6

>  <GENERIC_NAME>  (1) 
Glycerol Phenylbutyrate

>  <INCHI_IDENTIFIER>  (1) 
InChI=1S/C33H38O6/c34-31(22-10-19-27-13-4-1-5-14-27)37-25-30(39-33(36)24-12-21-29-17-8-3-9-18-29)26-38-32(35)23-11-20-28-15-6-2-7-16-28/h1-9,13-18,30H,10-12,19-26H2

>  <INCHI_KEY>  (1) 
ZSDBFLMJVAGKOU-UHFFFAOYSA-N

>  <JCHEM_ACCEPTOR_COUNT>  (1) 
3

>  <JCHEM_AVERAGE_POLARIZABILITY>  (1) 
60.15746965104188

>  <JCHEM_BIOAVAILABILITY>  (1) 
0

>  <JCHEM_DONOR_COUNT>  (1) 
0

>  <JCHEM_FORMAL_CHARGE>  (1) 
0

>  <JCHEM_GHOSE_FILTER>  (1) 
0

>  <JCHEM_IUPAC>  (1) 
1,3-bis[(4-phenylbutanoyl)oxy]propan-2-yl 4-phenylbutanoate

>  <JCHEM_LOGP>  (1) 
7.654793657333334

>  <JCHEM_MDDR_LIKE_RULE>  (1) 
1

>  <JCHEM_NUMBER_OF_RINGS>  (1) 
3

>  <JCHEM_PHYSIOLOGICAL_CHARGE>  (1) 
0

>  <JCHEM_PKA_STRONGEST_BASIC>  (1) 
-6.565989317187939

>  <JCHEM_POLAR_SURFACE_AREA>  (1) 
78.9

>  <JCHEM_REFRACTIVITY>  (1) 
149.74229999999994

>  <JCHEM_ROTATABLE_BOND_COUNT>  (1) 
20

>  <JCHEM_RULE_OF_FIVE>  (1) 
0

>  <JCHEM_TRADITIONAL_IUPAC>  (1) 
1,3-bis[(4-phenylbutanoyl)oxy]propan-2-yl 4-phenylbutanoate

>  <JCHEM_VEBER_RULE>  (1) 
0

>  <MOLECULAR_WEIGHT>  (1) 
530.6512

>  <PRODUCTS>  (1) 
Ravicti

>  <SECONDARY_ACCESSION_NUMBERS>  (1) 
DB06170

>  <SMILES>  (1) 
O=C(CCCC1=CC=CC=C1)OCC(COC(=O)CCCC1=CC=CC=C1)OC(=O)CCCC1=CC=CC=C1

>  <SYNONYMS>  (1) 
Glyceryl Tri-4-Phenylbutyrate; GPB; GT4P

$$$$
