2475
     RDKit          2D

 40 40  0  0  1  0  0  0  0  0999 V2000
    1.6500   -1.3885    0.0000 Cl  0  0  0  0  0  0  0  0  0  0  0  0
    3.0790    1.0865    0.0000 O   0  0  0  0  0  0  0  0  0  0  0  0
    3.0790   -0.5635    0.0000 O   0  0  0  0  0  0  0  0  0  0  0  0
    4.5080    1.9116    0.0000 N   0  0  0  0  0  0  0  0  0  0  0  0
    5.2224    2.3241    0.0000 C   0  0  0  0  0  0  0  0  0  0  0  0
    4.5080    1.0865    0.0000 C   0  0  0  0  0  0  0  0  0  0  0  0
    3.7935    0.6740    0.0000 C   0  0  0  0  0  0  0  0  0  0  0  0
    5.9370    2.7366    0.0000 C   0  0  0  0  0  0  0  0  0  0  0  0
    4.8099    3.0385    0.0000 C   0  0  0  0  0  0  0  0  0  0  0  0
    5.6350    1.6096    0.0000 C   0  0  0  0  0  0  0  0  0  0  0  0
    3.7935   -0.1510    0.0000 C   0  0  0  0  0  0  0  0  0  0  0  0
    3.0790   -1.3885    0.0000 C   0  0  0  0  0  0  0  0  0  0  0  0
    3.7935   -1.8010    0.0000 C   0  0  0  0  0  0  0  0  0  0  0  0
    2.3645   -1.8010    0.0000 C   0  0  0  0  0  0  0  0  0  0  0  0
    3.7935   -2.6260    0.0000 C   0  0  0  0  0  0  0  0  0  0  0  0
    3.0790   -3.0385    0.0000 C   0  0  0  0  0  0  0  0  0  0  0  0
    2.3645   -2.6260    0.0000 C   0  0  0  0  0  0  0  0  0  0  0  0
    4.5080   -3.0385    0.0000 C   0  0  0  0  0  0  0  0  0  0  0  0
    0.0000    0.0000    0.0000 H   0  0  0  0  0  0  0  0  0  0  0  0
    0.0000    0.0000    0.0000 H   0  0  0  0  0  0  0  0  0  0  0  0
    0.0000    0.0000    0.0000 H   0  0  0  0  0  0  0  0  0  0  0  0
    0.0000    0.0000    0.0000 H   0  0  0  0  0  0  0  0  0  0  0  0
    0.0000    0.0000    0.0000 H   0  0  0  0  0  0  0  0  0  0  0  0
    0.0000    0.0000    0.0000 H   0  0  0  0  0  0  0  0  0  0  0  0
    0.0000    0.0000    0.0000 H   0  0  0  0  0  0  0  0  0  0  0  0
    0.0000    0.0000    0.0000 H   0  0  0  0  0  0  0  0  0  0  0  0
    0.0000    0.0000    0.0000 H   0  0  0  0  0  0  0  0  0  0  0  0
    0.0000    0.0000    0.0000 H   0  0  0  0  0  0  0  0  0  0  0  0
    0.0000    0.0000    0.0000 H   0  0  0  0  0  0  0  0  0  0  0  0
    0.0000    0.0000    0.0000 H   0  0  0  0  0  0  0  0  0  0  0  0
    0.0000    0.0000    0.0000 H   0  0  0  0  0  0  0  0  0  0  0  0
    0.0000    0.0000    0.0000 H   0  0  0  0  0  0  0  0  0  0  0  0
    0.0000    0.0000    0.0000 H   0  0  0  0  0  0  0  0  0  0  0  0
    0.0000    0.0000    0.0000 H   0  0  0  0  0  0  0  0  0  0  0  0
    0.0000    0.0000    0.0000 H   0  0  0  0  0  0  0  0  0  0  0  0
    0.0000    0.0000    0.0000 H   0  0  0  0  0  0  0  0  0  0  0  0
    0.0000    0.0000    0.0000 H   0  0  0  0  0  0  0  0  0  0  0  0
    0.0000    0.0000    0.0000 H   0  0  0  0  0  0  0  0  0  0  0  0
    0.0000    0.0000    0.0000 H   0  0  0  0  0  0  0  0  0  0  0  0
    0.0000    0.0000    0.0000 H   0  0  0  0  0  0  0  0  0  0  0  0
  1 14  1  0
  2  7  1  0
  3 11  1  0
  3 12  1  0
  4  5  1  0
  4  6  1  0
  5  8  1  0
  5  9  1  0
  5 10  1  0
  6  7  1  0
  7 11  1  0
 12 13  2  0
 12 14  1  0
 13 15  1  0
 14 17  2  0
 15 16  2  0
 15 18  1  0
 16 17  1  0
  2 19  1  0
  4 20  1  0
  6 21  1  0
  6 22  1  0
  7 23  1  0
  8 24  1  0
  8 25  1  0
  8 26  1  0
  9 27  1  0
  9 28  1  0
  9 29  1  0
 10 30  1  0
 10 31  1  0
 10 32  1  0
 11 33  1  0
 11 34  1  0
 13 35  1  0
 16 36  1  0
 17 37  1  0
 18 38  1  0
 18 39  1  0
 18 40  1  0
M  END
>  <ALOGPS_LOGP>  (1) 
3.14

>  <ALOGPS_LOGS>  (1) 
-3.28

>  <ALOGPS_SOLUBILITY>  (1) 
1.43e-01 g/l

>  <DATABASE_ID>  (1) 
DB08808

>  <DATABASE_NAME>  (1) 
drugbank

>  <DRUGBANK_ID>  (1) 
DB08808

>  <DRUG_GROUPS>  (1) 
approved

>  <EXACT_MASS>  (1) 
271.13390666

>  <FORMULA>  (1) 
C14H22ClNO2

>  <GENERIC_NAME>  (1) 
Bupranolol

>  <INCHI_IDENTIFIER>  (1) 
InChI=1S/C14H22ClNO2/c1-10-5-6-12(15)13(7-10)18-9-11(17)8-16-14(2,3)4/h5-7,11,16-17H,8-9H2,1-4H3

>  <INCHI_KEY>  (1) 
HQIRNZOQPUAHHV-UHFFFAOYSA-N

>  <INTERNATIONAL_BRANDS>  (1) 
Betadrenol; Ophtorenin

>  <JCHEM_ACCEPTOR_COUNT>  (1) 
3

>  <JCHEM_AVERAGE_POLARIZABILITY>  (1) 
30.34887880204026

>  <JCHEM_BIOAVAILABILITY>  (1) 
1

>  <JCHEM_DONOR_COUNT>  (1) 
2

>  <JCHEM_FORMAL_CHARGE>  (1) 
0

>  <JCHEM_GHOSE_FILTER>  (1) 
1

>  <JCHEM_IUPAC>  (1) 
1-(tert-butylamino)-3-(2-chloro-5-methylphenoxy)propan-2-ol

>  <JCHEM_LOGP>  (1) 
2.992261906666667

>  <JCHEM_MDDR_LIKE_RULE>  (1) 
0

>  <JCHEM_NUMBER_OF_RINGS>  (1) 
1

>  <JCHEM_PHYSIOLOGICAL_CHARGE>  (1) 
1

>  <JCHEM_PKA_STRONGEST_ACIDIC>  (1) 
14.087500711296151

>  <JCHEM_PKA_STRONGEST_BASIC>  (1) 
9.759522836750762

>  <JCHEM_POLAR_SURFACE_AREA>  (1) 
41.49

>  <JCHEM_REFRACTIVITY>  (1) 
74.85970000000002

>  <JCHEM_ROTATABLE_BOND_COUNT>  (1) 
6

>  <JCHEM_RULE_OF_FIVE>  (1) 
1

>  <JCHEM_TRADITIONAL_IUPAC>  (1) 
1-(tert-butylamino)-3-(2-chloro-5-methylphenoxy)propan-2-ol

>  <JCHEM_VEBER_RULE>  (1) 
0

>  <MOLECULAR_WEIGHT>  (1) 
271.783

>  <SALTS>  (1) 
Bupranolol hydrochloride

>  <SMILES>  (1) 
CC1=CC(OCC(O)CNC(C)(C)C)=C(Cl)C=C1

$$$$
