 
     RDKit          2D

 66 70  0  0  0  0  0  0  0  0999 V2000
   18.6037  -16.6649    0.0000 N   0  0  0  0  0  0  0  0  0  0  0  0
   18.6037  -17.4899    0.0000 C   0  0  0  0  0  0  0  0  0  0  0  0
   19.3049  -17.9024    0.0000 C   0  0  0  0  0  0  0  0  0  0  0  0
   20.0474  -17.4899    0.0000 N   0  0  0  0  0  0  0  0  0  0  0  0
   20.0474  -16.6649    0.0000 C   0  0  0  0  0  0  0  0  0  0  0  0
   19.3049  -16.2524    0.0000 C   0  0  0  0  0  0  0  0  0  0  0  0
   20.7487  -17.9024    0.0000 C   0  0  0  0  0  0  0  0  0  0  0  0
   17.8875  -16.2553    0.0000 C   0  0  0  0  0  0  0  0  0  0  0  0
   17.1872  -16.6636    0.0000 C   0  0  0  0  0  0  0  0  0  0  0  0
   16.4822  -16.2604    0.0000 C   0  0  0  0  0  0  0  0  0  0  0  0
   15.7694  -16.6758    0.0000 C   0  0  0  0  0  0  0  0  0  0  0  0
   15.7728  -17.5008    0.0000 C   0  0  0  0  0  0  0  0  0  0  0  0
   16.4777  -17.9040    0.0000 C   0  0  0  0  0  0  0  0  0  0  0  0
   17.1905  -17.4886    0.0000 C   0  0  0  0  0  0  0  0  0  0  0  0
   16.5199  -15.4277    0.0000 C   0  0  0  0  0  0  0  0  0  0  0  0
   16.5199  -14.6027    0.0000 F   0  0  0  0  0  0  0  0  0  0  0  0
   15.6949  -15.4277    0.0000 F   0  0  0  0  0  0  0  0  0  0  0  0
   17.3449  -15.4277    0.0000 F   0  0  0  0  0  0  0  0  0  0  0  0
   15.0535  -17.9201    0.0000 N   0  0  0  0  0  0  0  0  0  0  0  0
   14.3318  -17.5077    0.0000 C   0  0  0  0  0  0  0  0  0  0  0  0
   13.6137  -17.9266    0.0000 C   0  0  0  0  0  0  0  0  0  0  0  0
   14.3284  -16.6650    0.0000 O   0  0  0  0  0  0  0  0  0  0  0  0
   12.9038  -17.5213    0.0000 C   0  0  0  0  0  0  0  0  0  0  0  0
   12.1913  -17.9372    0.0000 C   0  0  0  0  0  0  0  0  0  0  0  0
   12.1953  -18.7622    0.0000 C   0  0  0  0  0  0  0  0  0  0  0  0
   12.9052  -19.1676    0.0000 C   0  0  0  0  0  0  0  0  0  0  0  0
   13.6177  -18.7516    0.0000 C   0  0  0  0  0  0  0  0  0  0  0  0
   11.4911  -19.1735    0.0000 C   0  0  0  0  0  0  0  0  0  0  0  0
   11.4918  -17.5377    0.0000 C   0  0  0  0  0  0  0  0  0  0  0  0
   10.7773  -17.1252    0.0000 C   0  0  0  0  0  0  0  0  0  0  0  0
   10.0628  -16.7127    0.0000 C   0  0  0  0  0  0  0  0  0  0  0  0
   10.0501  -15.8813    0.0000 C   0  0  0  0  0  0  0  0  0  0  0  0
    9.2559  -15.6360    0.0000 N   0  0  0  0  0  0  0  0  0  0  0  0
    8.7771  -16.3156    0.0000 C   0  0  0  0  0  0  0  0  0  0  0  0
    9.2756  -16.9809    0.0000 N   0  0  0  0  0  0  0  0  0  0  0  0
    7.9580  -16.4138    0.0000 C   0  0  0  0  0  0  0  0  0  0  0  0
    7.6335  -17.1724    0.0000 C   0  0  0  0  0  0  0  0  0  0  0  0
    8.1319  -17.8376    0.0000 C   0  0  0  0  0  0  0  0  0  0  0  0
    8.9510  -17.7394    0.0000 N   0  0  0  0  0  0  0  0  0  0  0  0
    0.0000    0.0000    0.0000 H   0  0  0  0  0  0  0  0  0  0  0  0
    0.0000    0.0000    0.0000 H   0  0  0  0  0  0  0  0  0  0  0  0
    0.0000    0.0000    0.0000 H   0  0  0  0  0  0  0  0  0  0  0  0
    0.0000    0.0000    0.0000 H   0  0  0  0  0  0  0  0  0  0  0  0
    0.0000    0.0000    0.0000 H   0  0  0  0  0  0  0  0  0  0  0  0
    0.0000    0.0000    0.0000 H   0  0  0  0  0  0  0  0  0  0  0  0
    0.0000    0.0000    0.0000 H   0  0  0  0  0  0  0  0  0  0  0  0
    0.0000    0.0000    0.0000 H   0  0  0  0  0  0  0  0  0  0  0  0
    0.0000    0.0000    0.0000 H   0  0  0  0  0  0  0  0  0  0  0  0
    0.0000    0.0000    0.0000 H   0  0  0  0  0  0  0  0  0  0  0  0
    0.0000    0.0000    0.0000 H   0  0  0  0  0  0  0  0  0  0  0  0
    0.0000    0.0000    0.0000 H   0  0  0  0  0  0  0  0  0  0  0  0
    0.0000    0.0000    0.0000 H   0  0  0  0  0  0  0  0  0  0  0  0
    0.0000    0.0000    0.0000 H   0  0  0  0  0  0  0  0  0  0  0  0
    0.0000    0.0000    0.0000 H   0  0  0  0  0  0  0  0  0  0  0  0
    0.0000    0.0000    0.0000 H   0  0  0  0  0  0  0  0  0  0  0  0
    0.0000    0.0000    0.0000 H   0  0  0  0  0  0  0  0  0  0  0  0
    0.0000    0.0000    0.0000 H   0  0  0  0  0  0  0  0  0  0  0  0
    0.0000    0.0000    0.0000 H   0  0  0  0  0  0  0  0  0  0  0  0
    0.0000    0.0000    0.0000 H   0  0  0  0  0  0  0  0  0  0  0  0
    0.0000    0.0000    0.0000 H   0  0  0  0  0  0  0  0  0  0  0  0
    0.0000    0.0000    0.0000 H   0  0  0  0  0  0  0  0  0  0  0  0
    0.0000    0.0000    0.0000 H   0  0  0  0  0  0  0  0  0  0  0  0
    0.0000    0.0000    0.0000 H   0  0  0  0  0  0  0  0  0  0  0  0
    0.0000    0.0000    0.0000 H   0  0  0  0  0  0  0  0  0  0  0  0
    0.0000    0.0000    0.0000 H   0  0  0  0  0  0  0  0  0  0  0  0
    0.0000    0.0000    0.0000 H   0  0  0  0  0  0  0  0  0  0  0  0
  1  2  1  0
  2  3  1  0
  3  4  1  0
  4  5  1  0
  5  6  1  0
  1  6  1  0
  4  7  1  0
  1  8  1  0
  8  9  1  0
  9 10  2  0
 10 11  1  0
 11 12  2  0
 12 13  1  0
 13 14  2  0
  9 14  1  0
 10 15  1  0
 15 16  1  0
 15 17  1  0
 15 18  1  0
 12 19  1  0
 19 20  1  0
 20 21  1  0
 20 22  2  0
 21 23  2  0
 23 24  1  0
 24 25  2  0
 25 26  1  0
 26 27  2  0
 21 27  1  0
 25 28  1  0
 24 29  1  0
 29 30  3  0
 30 31  1  0
 31 32  2  0
 32 33  1  0
 33 34  2  0
 34 35  1  0
 31 35  1  0
 34 36  1  0
 36 37  2  0
 37 38  1  0
 38 39  2  0
 35 39  1  0
  2 40  1  0
  2 41  1  0
  3 42  1  0
  3 43  1  0
  5 44  1  0
  5 45  1  0
  6 46  1  0
  6 47  1  0
  7 48  1  0
  7 49  1  0
  7 50  1  0
  8 51  1  0
  8 52  1  0
 11 53  1  0
 13 54  1  0
 14 55  1  0
 19 56  1  0
 23 57  1  0
 26 58  1  0
 27 59  1  0
 28 60  1  0
 28 61  1  0
 28 62  1  0
 32 63  1  0
 36 64  1  0
 37 65  1  0
 38 66  1  0
M  END
>  <ALOGPS_LOGP>  (1) 
3.94

>  <ALOGPS_LOGS>  (1) 
-5.26

>  <ALOGPS_SOLUBILITY>  (1) 
2.95e-03 g/l

>  <DATABASE_ID>  (1) 
DB08901

>  <DATABASE_NAME>  (1) 
drugbank

>  <DRUGBANK_ID>  (1) 
DB08901

>  <DRUG_GROUPS>  (1) 
approved

>  <EXACT_MASS>  (1) 
532.219844131

>  <FORMULA>  (1) 
C29H27F3N6O

>  <GENERIC_NAME>  (1) 
Ponatinib

>  <INCHI_IDENTIFIER>  (1) 
InChI=1S/C29H27F3N6O/c1-20-5-6-22(16-21(20)8-10-25-18-33-27-4-3-11-34-38(25)27)28(39)35-24-9-7-23(26(17-24)29(30,31)32)19-37-14-12-36(2)13-15-37/h3-7,9,11,16-18H,12-15,19H2,1-2H3,(H,35,39)

>  <INCHI_KEY>  (1) 
PHXJVRSECIGDHY-UHFFFAOYSA-N

>  <JCHEM_ACCEPTOR_COUNT>  (1) 
5

>  <JCHEM_AVERAGE_POLARIZABILITY>  (1) 
55.68681074210255

>  <JCHEM_BIOAVAILABILITY>  (1) 
1

>  <JCHEM_DONOR_COUNT>  (1) 
1

>  <JCHEM_FORMAL_CHARGE>  (1) 
0

>  <JCHEM_GHOSE_FILTER>  (1) 
0

>  <JCHEM_IUPAC>  (1) 
3-(2-{imidazo[1,2-b]pyridazin-3-yl}ethynyl)-4-methyl-N-{4-[(4-methylpiperazin-1-yl)methyl]-3-(trifluoromethyl)phenyl}benzamide

>  <JCHEM_LOGP>  (1) 
4.965714124000001

>  <JCHEM_MDDR_LIKE_RULE>  (1) 
1

>  <JCHEM_NUMBER_OF_RINGS>  (1) 
5

>  <JCHEM_PHYSIOLOGICAL_CHARGE>  (1) 
1

>  <JCHEM_PKA_STRONGEST_ACIDIC>  (1) 
11.35884729914772

>  <JCHEM_PKA_STRONGEST_BASIC>  (1) 
8.029196511912764

>  <JCHEM_POLAR_SURFACE_AREA>  (1) 
65.77

>  <JCHEM_REFRACTIVITY>  (1) 
152.62889999999996

>  <JCHEM_ROTATABLE_BOND_COUNT>  (1) 
7

>  <JCHEM_RULE_OF_FIVE>  (1) 
0

>  <JCHEM_TRADITIONAL_IUPAC>  (1) 
ponatinib

>  <JCHEM_VEBER_RULE>  (1) 
0

>  <MOLECULAR_WEIGHT>  (1) 
532.5595

>  <PRODUCTS>  (1) 
Iclusig

>  <SALTS>  (1) 
Ponatinib Hydrochloride

>  <SMILES>  (1) 
CN1CCN(CC2=CC=C(NC(=O)C3=CC(C#CC4=CN=C5C=CC=NN45)=C(C)C=C3)C=C2C(F)(F)F)CC1

$$$$
