5281613
     RDKit          2D

 75 79  0  0  1  0  0  0  0  0999 V2000
    9.5685    0.8328    0.0000 O   0  0  0  0  0  0  0  0  0  0  0  0
   11.7230   -2.0465    0.0000 O   0  0  0  0  0  0  0  0  0  0  0  0
   11.0038   -0.8118    0.0000 O   0  0  0  0  0  0  0  0  0  0  0  0
   11.7136    0.4285    0.0000 O   0  0  0  0  0  0  0  0  0  0  0  0
   11.7072    2.0785    0.0000 O   0  0  0  0  0  0  0  0  0  0  0  0
    8.8493    2.0675    0.0000 O   0  0  0  0  0  0  0  0  0  0  0  0
   10.2751    2.8980    0.0000 O   0  0  0  0  0  0  0  0  0  0  0  0
    9.5780   -1.6423    0.0000 O   0  0  0  0  0  0  0  0  0  0  0  0
    9.5845   -3.2923    0.0000 O   0  0  0  0  0  0  0  0  0  0  0  0
   11.0165   -4.1118    0.0000 O   0  0  0  0  0  0  0  0  0  0  0  0
    5.9369    2.0475    0.0000 O   0  0  0  0  0  0  0  0  0  0  0  0
    7.3794   -0.4560    0.0000 O   0  0  0  0  0  0  0  0  0  0  0  0
    5.9369   -0.4274    0.0000 O   0  0  0  0  0  0  0  0  0  0  0  0
    2.3645    3.2850    0.0000 O   0  0  0  0  0  0  0  0  0  0  0  0
    3.7935    4.1100    0.0000 O   0  0  0  0  0  0  0  0  0  0  0  0
   10.2846    0.4230    0.0000 C   0  0  0  0  0  0  0  0  0  0  0  0
   10.9974    0.8382    0.0000 C   0  0  0  0  0  0  0  0  0  0  0  0
   10.9943    1.6632    0.0000 C   0  0  0  0  0  0  0  0  0  0  0  0
   10.2782    2.0730    0.0000 C   0  0  0  0  0  0  0  0  0  0  0  0
   10.2941   -2.0520    0.0000 C   0  0  0  0  0  0  0  0  0  0  0  0
   11.0070   -1.6368    0.0000 C   0  0  0  0  0  0  0  0  0  0  0  0
   10.2973   -2.8771    0.0000 C   0  0  0  0  0  0  0  0  0  0  0  0
   11.0134   -3.2868    0.0000 C   0  0  0  0  0  0  0  0  0  0  0  0
    9.5653    1.6578    0.0000 C   0  0  0  0  0  0  0  0  0  0  0  0
   11.7263   -2.8715    0.0000 C   0  0  0  0  0  0  0  0  0  0  0  0
   10.2878   -0.4020    0.0000 C   0  0  0  0  0  0  0  0  0  0  0  0
   12.4423   -3.2813    0.0000 C   0  0  0  0  0  0  0  0  0  0  0  0
    8.1364    1.6522    0.0000 C   0  0  0  0  0  0  0  0  0  0  0  0
    7.3889    2.0761    0.0000 C   0  0  0  0  0  0  0  0  0  0  0  0
    8.1364    0.7928    0.0000 C   0  0  0  0  0  0  0  0  0  0  0  0
    6.6514    1.6350    0.0000 C   0  0  0  0  0  0  0  0  0  0  0  0
    7.3889    0.3689    0.0000 C   0  0  0  0  0  0  0  0  0  0  0  0
    6.6514    0.8101    0.0000 C   0  0  0  0  0  0  0  0  0  0  0  0
    5.9369    0.3976    0.0000 C   0  0  0  0  0  0  0  0  0  0  0  0
    5.2224    1.6350    0.0000 C   0  0  0  0  0  0  0  0  0  0  0  0
    5.2224    0.8101    0.0000 C   0  0  0  0  0  0  0  0  0  0  0  0
    4.5079    2.0475    0.0000 C   0  0  0  0  0  0  0  0  0  0  0  0
    4.5079    2.8725    0.0000 C   0  0  0  0  0  0  0  0  0  0  0  0
    3.7935    1.6350    0.0000 C   0  0  0  0  0  0  0  0  0  0  0  0
    3.7935    3.2850    0.0000 C   0  0  0  0  0  0  0  0  0  0  0  0
    3.0789    2.0475    0.0000 C   0  0  0  0  0  0  0  0  0  0  0  0
    3.0789    2.8725    0.0000 C   0  0  0  0  0  0  0  0  0  0  0  0
    1.6500    2.8725    0.0000 C   0  0  0  0  0  0  0  0  0  0  0  0
    0.0000    0.0000    0.0000 H   0  0  0  0  0  0  0  0  0  0  0  0
    0.0000    0.0000    0.0000 H   0  0  0  0  0  0  0  0  0  0  0  0
    0.0000    0.0000    0.0000 H   0  0  0  0  0  0  0  0  0  0  0  0
    0.0000    0.0000    0.0000 H   0  0  0  0  0  0  0  0  0  0  0  0
    0.0000    0.0000    0.0000 H   0  0  0  0  0  0  0  0  0  0  0  0
    0.0000    0.0000    0.0000 H   0  0  0  0  0  0  0  0  0  0  0  0
    0.0000    0.0000    0.0000 H   0  0  0  0  0  0  0  0  0  0  0  0
    0.0000    0.0000    0.0000 H   0  0  0  0  0  0  0  0  0  0  0  0
    0.0000    0.0000    0.0000 H   0  0  0  0  0  0  0  0  0  0  0  0
    0.0000    0.0000    0.0000 H   0  0  0  0  0  0  0  0  0  0  0  0
    0.0000    0.0000    0.0000 H   0  0  0  0  0  0  0  0  0  0  0  0
    0.0000    0.0000    0.0000 H   0  0  0  0  0  0  0  0  0  0  0  0
    0.0000    0.0000    0.0000 H   0  0  0  0  0  0  0  0  0  0  0  0
    0.0000    0.0000    0.0000 H   0  0  0  0  0  0  0  0  0  0  0  0
    0.0000    0.0000    0.0000 H   0  0  0  0  0  0  0  0  0  0  0  0
    0.0000    0.0000    0.0000 H   0  0  0  0  0  0  0  0  0  0  0  0
    0.0000    0.0000    0.0000 H   0  0  0  0  0  0  0  0  0  0  0  0
    0.0000    0.0000    0.0000 H   0  0  0  0  0  0  0  0  0  0  0  0
    0.0000    0.0000    0.0000 H   0  0  0  0  0  0  0  0  0  0  0  0
    0.0000    0.0000    0.0000 H   0  0  0  0  0  0  0  0  0  0  0  0
    0.0000    0.0000    0.0000 H   0  0  0  0  0  0  0  0  0  0  0  0
    0.0000    0.0000    0.0000 H   0  0  0  0  0  0  0  0  0  0  0  0
    0.0000    0.0000    0.0000 H   0  0  0  0  0  0  0  0  0  0  0  0
    0.0000    0.0000    0.0000 H   0  0  0  0  0  0  0  0  0  0  0  0
    0.0000    0.0000    0.0000 H   0  0  0  0  0  0  0  0  0  0  0  0
    0.0000    0.0000    0.0000 H   0  0  0  0  0  0  0  0  0  0  0  0
    0.0000    0.0000    0.0000 H   0  0  0  0  0  0  0  0  0  0  0  0
    0.0000    0.0000    0.0000 H   0  0  0  0  0  0  0  0  0  0  0  0
    0.0000    0.0000    0.0000 H   0  0  0  0  0  0  0  0  0  0  0  0
    0.0000    0.0000    0.0000 H   0  0  0  0  0  0  0  0  0  0  0  0
    0.0000    0.0000    0.0000 H   0  0  0  0  0  0  0  0  0  0  0  0
    0.0000    0.0000    0.0000 H   0  0  0  0  0  0  0  0  0  0  0  0
  1 16  1  0
  1 24  1  0
  2 21  1  0
  2 25  1  0
 21  3  1  6
  3 26  1  0
 17  4  1  1
 18  5  1  6
 24  6  1  1
  6 28  1  0
 19  7  1  6
 20  8  1  1
 22  9  1  1
 23 10  1  6
 11 31  1  0
 11 35  1  0
 12 32  1  0
 13 34  2  0
 14 42  1  0
 14 43  1  0
 15 40  1  0
 16 17  1  0
 16 26  1  1
 17 18  1  0
 18 19  1  0
 19 24  1  0
 20 21  1  0
 20 22  1  0
 22 23  1  0
 23 25  1  0
 25 27  1  6
 28 29  1  0
 28 30  2  0
 29 31  2  0
 30 32  1  0
 31 33  1  0
 32 33  2  0
 33 34  1  0
 34 36  1  0
 35 36  2  0
 35 37  1  0
 37 38  2  0
 37 39  1  0
 38 40  1  0
 39 41  2  0
 40 42  2  0
 41 42  1  0
  4 44  1  0
  5 45  1  0
  7 46  1  0
  8 47  1  0
  9 48  1  0
 10 49  1  0
 12 50  1  0
 15 51  1  0
 16 52  1  0
 17 53  1  0
 18 54  1  0
 19 55  1  0
 20 56  1  0
 21 57  1  0
 22 58  1  0
 23 59  1  0
 24 60  1  0
 25 61  1  0
 26 62  1  0
 26 63  1  0
 27 64  1  0
 27 65  1  0
 27 66  1  0
 29 67  1  0
 30 68  1  0
 36 69  1  0
 38 70  1  0
 39 71  1  0
 41 72  1  0
 43 73  1  0
 43 74  1  0
 43 75  1  0
M  END
>  <ALOGPS_LOGP>  (1) 
0.08

>  <ALOGPS_LOGS>  (1) 
-2.60

>  <ALOGPS_SOLUBILITY>  (1) 
1.54e+00 g/l

>  <DATABASE_ID>  (1) 
DB08995

>  <DATABASE_NAME>  (1) 
drugbank

>  <DRUGBANK_ID>  (1) 
DB08995

>  <DRUG_GROUPS>  (1) 
approved; investigational

>  <EXACT_MASS>  (1) 
608.174120354

>  <FORMULA>  (1) 
C28H32O15

>  <GENERIC_NAME>  (1) 
Diosmin

>  <INCHI_IDENTIFIER>  (1) 
InChI=1S/C28H32O15/c1-10-21(32)23(34)25(36)27(40-10)39-9-19-22(33)24(35)26(37)28(43-19)41-12-6-14(30)20-15(31)8-17(42-18(20)7-12)11-3-4-16(38-2)13(29)5-11/h3-8,10,19,21-30,32-37H,9H2,1-2H3/t10-,19+,21-,22+,23+,24-,25+,26+,27+,28+/m0/s1

>  <INCHI_KEY>  (1) 
GZSOSUNBTXMUFQ-YFAPSIMESA-N

>  <INTERNATIONAL_BRANDS>  (1) 
Dalfon; Detralex

>  <JCHEM_ACCEPTOR_COUNT>  (1) 
15

>  <JCHEM_AVERAGE_POLARIZABILITY>  (1) 
59.172736649082744

>  <JCHEM_BIOAVAILABILITY>  (1) 
0

>  <JCHEM_DONOR_COUNT>  (1) 
8

>  <JCHEM_FORMAL_CHARGE>  (1) 
0

>  <JCHEM_GHOSE_FILTER>  (1) 
0

>  <JCHEM_IUPAC>  (1) 
5-hydroxy-2-(3-hydroxy-4-methoxyphenyl)-7-{[(2S,3R,4S,5S,6R)-3,4,5-trihydroxy-6-({[(2R,3R,4R,5R,6S)-3,4,5-trihydroxy-6-methyloxan-2-yl]oxy}methyl)oxan-2-yl]oxy}-4H-chromen-4-one

>  <JCHEM_LOGP>  (1) 
-0.44297590433333345

>  <JCHEM_MDDR_LIKE_RULE>  (1) 
1

>  <JCHEM_NUMBER_OF_RINGS>  (1) 
5

>  <JCHEM_PHYSIOLOGICAL_CHARGE>  (1) 
0

>  <JCHEM_PKA>  (1) 
9.584533864342719

>  <JCHEM_PKA_STRONGEST_ACIDIC>  (1) 
8.475596774388155

>  <JCHEM_PKA_STRONGEST_BASIC>  (1) 
-3.6121823516836606

>  <JCHEM_POLAR_SURFACE_AREA>  (1) 
234.28999999999996

>  <JCHEM_REFRACTIVITY>  (1) 
142.39109999999997

>  <JCHEM_ROTATABLE_BOND_COUNT>  (1) 
7

>  <JCHEM_RULE_OF_FIVE>  (1) 
0

>  <JCHEM_TRADITIONAL_IUPAC>  (1) 
diosmin

>  <JCHEM_VEBER_RULE>  (1) 
0

>  <MOLECULAR_WEIGHT>  (1) 
608.5447

>  <SMILES>  (1) 
COC1=C(O)C=C(C=C1)C1=CC(=O)C2=C(O)C=C(O[C@@H]3O[C@H](CO[C@@H]4O[C@@H](C)[C@H](O)[C@@H](O)[C@H]4O)[C@@H](O)[C@H](O)[C@H]3O)C=C2O1

>  <SYNONYMS>  (1) 
3',5,7-trihydroxy-4'-methoxyflavone 7-rhamnoglucoside; 3',5,7-trihydroxy-4'-methoxyflavone-7-rutinoside; diosmetin 7-neohesperidoside; Diosmetin 7-O-rutinoside; Diosmine

$$$$
