 
     RDKit          2D

 48 50  0  0  0  0  0  0  0  0999 V2000
   17.3663   -9.8587    0.0000 C   0  0  0  0  0  0  0  0  0  0  0  0
   17.3663  -10.6837    0.0000 C   0  0  0  0  0  0  0  0  0  0  0  0
   16.6238  -11.0962    0.0000 C   0  0  0  0  0  0  0  0  0  0  0  0
   15.9225  -10.6837    0.0000 C   0  0  0  0  0  0  0  0  0  0  0  0
   15.9225   -9.8587    0.0000 C   0  0  0  0  0  0  0  0  0  0  0  0
   16.6238   -9.4462    0.0000 C   0  0  0  0  0  0  0  0  0  0  0  0
   18.0675   -9.4462    0.0000 Cl  0  0  0  0  0  0  0  0  0  0  0  0
   15.1800  -11.0962    0.0000 N   0  0  0  0  0  0  0  0  0  0  0  0
   14.4788  -10.6837    0.0000 C   0  0  0  0  0  0  0  0  0  0  0  0
   13.7775  -11.0962    0.0000 N   0  0  0  0  0  0  0  0  0  0  0  0
   14.4788   -9.8587    0.0000 O   0  0  0  0  0  0  0  0  0  0  0  0
   13.0763  -10.6837    0.0000 C   0  0  0  0  0  0  0  0  0  0  0  0
   12.3750  -11.0962    0.0000 C   0  0  0  0  0  0  0  0  0  0  0  0
   11.6325  -10.6837    0.0000 C   0  0  0  0  0  0  0  0  0  0  0  0
   11.6325   -9.8587    0.0000 C   0  0  0  0  0  0  0  0  0  0  0  0
   12.3338   -9.4462    0.0000 C   0  0  0  0  0  0  0  0  0  0  0  0
   13.0763   -9.8587    0.0000 C   0  0  0  0  0  0  0  0  0  0  0  0
   10.9725   -9.4462    0.0000 O   0  0  0  0  0  0  0  0  0  0  0  0
   10.2713   -9.8587    0.0000 C   0  0  0  0  0  0  0  0  0  0  0  0
   10.2713  -10.6837    0.0000 C   0  0  0  0  0  0  0  0  0  0  0  0
    9.5288  -11.0962    0.0000 C   0  0  0  0  0  0  0  0  0  0  0  0
    8.8275  -10.6837    0.0000 N   0  0  0  0  0  0  0  0  0  0  0  0
    8.8275   -9.8175    0.0000 C   0  0  0  0  0  0  0  0  0  0  0  0
    9.5288   -9.4050    0.0000 C   0  0  0  0  0  0  0  0  0  0  0  0
    8.1263   -9.4462    0.0000 C   0  0  0  0  0  0  0  0  0  0  0  0
    7.3838   -9.8587    0.0000 N   0  0  0  0  0  0  0  0  0  0  0  0
    8.1263   -8.6212    0.0000 O   0  0  0  0  0  0  0  0  0  0  0  0
    6.6825   -9.4462    0.0000 C   0  0  0  0  0  0  0  0  0  0  0  0
   12.3750  -11.9212    0.0000 F   0  0  0  0  0  0  0  0  0  0  0  0
   16.6238   -8.6212    0.0000 C   0  0  0  0  0  0  0  0  0  0  0  0
   16.6238   -7.7962    0.0000 F   0  0  0  0  0  0  0  0  0  0  0  0
   15.7988   -8.6212    0.0000 F   0  0  0  0  0  0  0  0  0  0  0  0
   17.4488   -8.6212    0.0000 F   0  0  0  0  0  0  0  0  0  0  0  0
    0.0000    0.0000    0.0000 H   0  0  0  0  0  0  0  0  0  0  0  0
    0.0000    0.0000    0.0000 H   0  0  0  0  0  0  0  0  0  0  0  0
    0.0000    0.0000    0.0000 H   0  0  0  0  0  0  0  0  0  0  0  0
    0.0000    0.0000    0.0000 H   0  0  0  0  0  0  0  0  0  0  0  0
    0.0000    0.0000    0.0000 H   0  0  0  0  0  0  0  0  0  0  0  0
    0.0000    0.0000    0.0000 H   0  0  0  0  0  0  0  0  0  0  0  0
    0.0000    0.0000    0.0000 H   0  0  0  0  0  0  0  0  0  0  0  0
    0.0000    0.0000    0.0000 H   0  0  0  0  0  0  0  0  0  0  0  0
    0.0000    0.0000    0.0000 H   0  0  0  0  0  0  0  0  0  0  0  0
    0.0000    0.0000    0.0000 H   0  0  0  0  0  0  0  0  0  0  0  0
    0.0000    0.0000    0.0000 H   0  0  0  0  0  0  0  0  0  0  0  0
    0.0000    0.0000    0.0000 H   0  0  0  0  0  0  0  0  0  0  0  0
    0.0000    0.0000    0.0000 H   0  0  0  0  0  0  0  0  0  0  0  0
    0.0000    0.0000    0.0000 H   0  0  0  0  0  0  0  0  0  0  0  0
    0.0000    0.0000    0.0000 H   0  0  0  0  0  0  0  0  0  0  0  0
  1  2  2  0
  2  3  1  0
  3  4  2  0
  4  5  1  0
  5  6  2  0
  1  6  1  0
  1  7  1  0
  4  8  1  0
  8  9  1  0
  9 10  1  0
  9 11  2  0
 10 12  1  0
 12 13  2  0
 13 14  1  0
 14 15  2  0
 15 16  1  0
 16 17  2  0
 12 17  1  0
 15 18  1  0
 18 19  1  0
 19 20  2  0
 20 21  1  0
 21 22  2  0
 22 23  1  0
 23 24  2  0
 19 24  1  0
 23 25  1  0
 25 26  1  0
 25 27  2  0
 26 28  1  0
 13 29  1  0
  6 30  1  0
 30 31  1  0
 30 32  1  0
 30 33  1  0
  2 34  1  0
  3 35  1  0
  5 36  1  0
  8 37  1  0
 10 38  1  0
 14 39  1  0
 16 40  1  0
 17 41  1  0
 20 42  1  0
 21 43  1  0
 24 44  1  0
 26 45  1  0
 28 46  1  0
 28 47  1  0
 28 48  1  0
M  END
>  <ALOGPS_LOGP>  (1) 
4.53

>  <ALOGPS_LOGS>  (1) 
-5.67

>  <ALOGPS_SOLUBILITY>  (1) 
1.02e-03 g/l

>  <DATABASE_ID>  (1) 
DB08896

>  <DATABASE_NAME>  (1) 
drugbank

>  <DRUGBANK_ID>  (1) 
DB08896

>  <DRUG_GROUPS>  (1) 
approved

>  <EXACT_MASS>  (1) 
482.076880893

>  <FORMULA>  (1) 
C21H15ClF4N4O3

>  <GENERIC_NAME>  (1) 
Regorafenib

>  <INCHI_IDENTIFIER>  (1) 
InChI=1S/C21H15ClF4N4O3/c1-27-19(31)18-10-13(6-7-28-18)33-12-3-5-17(16(23)9-12)30-20(32)29-11-2-4-15(22)14(8-11)21(24,25)26/h2-10H,1H3,(H,27,31)(H2,29,30,32)

>  <INCHI_KEY>  (1) 
FNHKPVJBJVTLMP-UHFFFAOYSA-N

>  <JCHEM_ACCEPTOR_COUNT>  (1) 
3

>  <JCHEM_AVERAGE_POLARIZABILITY>  (1) 
41.23447447826536

>  <JCHEM_BIOAVAILABILITY>  (1) 
1

>  <JCHEM_DONOR_COUNT>  (1) 
3

>  <JCHEM_FORMAL_CHARGE>  (1) 
0

>  <JCHEM_GHOSE_FILTER>  (1) 
0

>  <JCHEM_IUPAC>  (1) 
4-[4-({[4-chloro-3-(trifluoromethyl)phenyl]carbamoyl}amino)-3-fluorophenoxy]-N-methylpyridine-2-carboxamide

>  <JCHEM_LOGP>  (1) 
4.486031697

>  <JCHEM_MDDR_LIKE_RULE>  (1) 
1

>  <JCHEM_NUMBER_OF_RINGS>  (1) 
3

>  <JCHEM_PHYSIOLOGICAL_CHARGE>  (1) 
0

>  <JCHEM_PKA>  (1) 
13.968945246285848

>  <JCHEM_PKA_STRONGEST_ACIDIC>  (1) 
10.517571102150528

>  <JCHEM_PKA_STRONGEST_BASIC>  (1) 
2.023422473708148

>  <JCHEM_POLAR_SURFACE_AREA>  (1) 
92.35

>  <JCHEM_REFRACTIVITY>  (1) 
114.73470000000002

>  <JCHEM_ROTATABLE_BOND_COUNT>  (1) 
6

>  <JCHEM_RULE_OF_FIVE>  (1) 
1

>  <JCHEM_TRADITIONAL_IUPAC>  (1) 
regorafenib

>  <JCHEM_VEBER_RULE>  (1) 
0

>  <MOLECULAR_WEIGHT>  (1) 
482.815

>  <PRODUCTS>  (1) 
Stivarga

>  <SALTS>  (1) 
Regorafenib monohydrate

>  <SMILES>  (1) 
CNC(=O)C1=CC(OC2=CC(F)=C(NC(=O)NC3=CC=C(Cl)C(=C3)C(F)(F)F)C=C2)=CC=N1

>  <SYNONYMS>  (1) 
Regorafenib; Régorafénib; Regorafenibum

$$$$
