5105
     RDKit          2D

 53 54  0  0  0  0  0  0  0  0999 V2000
    5.2224    0.8250    0.0000 O   0  0  0  0  0  0  0  0  0  0  0  0
    3.0790   -3.7126    0.0000 O   0  0  0  0  0  0  0  0  0  0  0  0
    4.5080   -2.8876    0.0000 O   0  0  0  0  0  0  0  0  0  0  0  0
    1.6500   -3.7126    0.0000 O   0  0  0  0  0  0  0  0  0  0  0  0
    7.3659    3.7126    0.0000 N   0  0  0  0  0  0  0  0  0  0  0  0
    3.7935   -1.6500    0.0000 N   0  0  0  0  0  0  0  0  0  0  0  0
    8.0804    3.3001    0.0000 C   0  0  0  0  0  0  0  0  0  0  0  0
    7.3659    4.5376    0.0000 C   0  0  0  0  0  0  0  0  0  0  0  0
    8.0804    4.9501    0.0000 C   0  0  0  0  0  0  0  0  0  0  0  0
    8.7949    3.7126    0.0000 C   0  0  0  0  0  0  0  0  0  0  0  0
    8.7949    4.5376    0.0000 C   0  0  0  0  0  0  0  0  0  0  0  0
    6.6515    3.3001    0.0000 C   0  0  0  0  0  0  0  0  0  0  0  0
    6.6515    2.4751    0.0000 C   0  0  0  0  0  0  0  0  0  0  0  0
    5.9370    2.0625    0.0000 C   0  0  0  0  0  0  0  0  0  0  0  0
    7.3659    2.0625    0.0000 C   0  0  0  0  0  0  0  0  0  0  0  0
    5.9370    1.2375    0.0000 C   0  0  0  0  0  0  0  0  0  0  0  0
    7.3659    1.2375    0.0000 C   0  0  0  0  0  0  0  0  0  0  0  0
    6.6515    0.8250    0.0000 C   0  0  0  0  0  0  0  0  0  0  0  0
    5.2224    0.0000    0.0000 C   0  0  0  0  0  0  0  0  0  0  0  0
    4.5080   -0.4125    0.0000 C   0  0  0  0  0  0  0  0  0  0  0  0
    4.5080   -1.2375    0.0000 C   0  0  0  0  0  0  0  0  0  0  0  0
    3.7935   -2.4751    0.0000 C   0  0  0  0  0  0  0  0  0  0  0  0
    3.0790   -2.8876    0.0000 C   0  0  0  0  0  0  0  0  0  0  0  0
    2.3645   -4.1251    0.0000 C   0  0  0  0  0  0  0  0  0  0  0  0
    2.3645   -4.9501    0.0000 C   0  0  0  0  0  0  0  0  0  0  0  0
    0.0000    0.0000    0.0000 H   0  0  0  0  0  0  0  0  0  0  0  0
    0.0000    0.0000    0.0000 H   0  0  0  0  0  0  0  0  0  0  0  0
    0.0000    0.0000    0.0000 H   0  0  0  0  0  0  0  0  0  0  0  0
    0.0000    0.0000    0.0000 H   0  0  0  0  0  0  0  0  0  0  0  0
    0.0000    0.0000    0.0000 H   0  0  0  0  0  0  0  0  0  0  0  0
    0.0000    0.0000    0.0000 H   0  0  0  0  0  0  0  0  0  0  0  0
    0.0000    0.0000    0.0000 H   0  0  0  0  0  0  0  0  0  0  0  0
    0.0000    0.0000    0.0000 H   0  0  0  0  0  0  0  0  0  0  0  0
    0.0000    0.0000    0.0000 H   0  0  0  0  0  0  0  0  0  0  0  0
    0.0000    0.0000    0.0000 H   0  0  0  0  0  0  0  0  0  0  0  0
    0.0000    0.0000    0.0000 H   0  0  0  0  0  0  0  0  0  0  0  0
    0.0000    0.0000    0.0000 H   0  0  0  0  0  0  0  0  0  0  0  0
    0.0000    0.0000    0.0000 H   0  0  0  0  0  0  0  0  0  0  0  0
    0.0000    0.0000    0.0000 H   0  0  0  0  0  0  0  0  0  0  0  0
    0.0000    0.0000    0.0000 H   0  0  0  0  0  0  0  0  0  0  0  0
    0.0000    0.0000    0.0000 H   0  0  0  0  0  0  0  0  0  0  0  0
    0.0000    0.0000    0.0000 H   0  0  0  0  0  0  0  0  0  0  0  0
    0.0000    0.0000    0.0000 H   0  0  0  0  0  0  0  0  0  0  0  0
    0.0000    0.0000    0.0000 H   0  0  0  0  0  0  0  0  0  0  0  0
    0.0000    0.0000    0.0000 H   0  0  0  0  0  0  0  0  0  0  0  0
    0.0000    0.0000    0.0000 H   0  0  0  0  0  0  0  0  0  0  0  0
    0.0000    0.0000    0.0000 H   0  0  0  0  0  0  0  0  0  0  0  0
    0.0000    0.0000    0.0000 H   0  0  0  0  0  0  0  0  0  0  0  0
    0.0000    0.0000    0.0000 H   0  0  0  0  0  0  0  0  0  0  0  0
    0.0000    0.0000    0.0000 H   0  0  0  0  0  0  0  0  0  0  0  0
    0.0000    0.0000    0.0000 H   0  0  0  0  0  0  0  0  0  0  0  0
    0.0000    0.0000    0.0000 H   0  0  0  0  0  0  0  0  0  0  0  0
    0.0000    0.0000    0.0000 H   0  0  0  0  0  0  0  0  0  0  0  0
  1 16  1  0
  1 19  1  0
  2 23  1  0
  2 24  1  0
  3 22  2  0
  4 24  2  0
  5  7  1  0
  5  8  1  0
  5 12  1  0
  6 21  1  0
  6 22  1  0
  7 10  1  0
  8  9  1  0
  9 11  1  0
 10 11  1  0
 12 13  1  0
 13 14  2  0
 13 15  1  0
 14 16  1  0
 15 17  2  0
 16 18  2  0
 17 18  1  0
 19 20  1  0
 20 21  1  0
 22 23  1  0
 24 25  1  0
  6 26  1  0
  7 27  1  0
  7 28  1  0
  8 29  1  0
  8 30  1  0
  9 31  1  0
  9 32  1  0
 10 33  1  0
 10 34  1  0
 11 35  1  0
 11 36  1  0
 12 37  1  0
 12 38  1  0
 14 39  1  0
 15 40  1  0
 17 41  1  0
 18 42  1  0
 19 43  1  0
 19 44  1  0
 20 45  1  0
 20 46  1  0
 21 47  1  0
 21 48  1  0
 23 49  1  0
 23 50  1  0
 25 51  1  0
 25 52  1  0
 25 53  1  0
M  END
>  <ALOGPS_LOGP>  (1) 
2.27

>  <ALOGPS_LOGS>  (1) 
-3.76

>  <ALOGPS_SOLUBILITY>  (1) 
6.12e-02 g/l

>  <DATABASE_ID>  (1) 
DB08806

>  <DATABASE_NAME>  (1) 
drugbank

>  <DRUGBANK_ID>  (1) 
DB08806

>  <DRUG_GROUPS>  (1) 
approved; investigational

>  <EXACT_MASS>  (1) 
348.204907394

>  <FORMULA>  (1) 
C19H28N2O4

>  <GENERIC_NAME>  (1) 
Roxatidine acetate

>  <INCHI_IDENTIFIER>  (1) 
InChI=1S/C19H28N2O4/c1-16(22)25-15-19(23)20-9-6-12-24-18-8-5-7-17(13-18)14-21-10-3-2-4-11-21/h5,7-8,13H,2-4,6,9-12,14-15H2,1H3,(H,20,23)

>  <INCHI_KEY>  (1) 
SMTZFNFIKUPEJC-UHFFFAOYSA-N

>  <INTERNATIONAL_BRANDS>  (1) 
Roxit

>  <JCHEM_ACCEPTOR_COUNT>  (1) 
4

>  <JCHEM_AVERAGE_POLARIZABILITY>  (1) 
39.26218922025028

>  <JCHEM_BIOAVAILABILITY>  (1) 
1

>  <JCHEM_DONOR_COUNT>  (1) 
1

>  <JCHEM_FORMAL_CHARGE>  (1) 
0

>  <JCHEM_GHOSE_FILTER>  (1) 
1

>  <JCHEM_IUPAC>  (1) 
({3-[3-(piperidin-1-ylmethyl)phenoxy]propyl}carbamoyl)methyl acetate

>  <JCHEM_LOGP>  (1) 
1.3130373466666667

>  <JCHEM_MDDR_LIKE_RULE>  (1) 
0

>  <JCHEM_NUMBER_OF_RINGS>  (1) 
2

>  <JCHEM_PHYSIOLOGICAL_CHARGE>  (1) 
1

>  <JCHEM_PKA_STRONGEST_ACIDIC>  (1) 
14.878283416135496

>  <JCHEM_PKA_STRONGEST_BASIC>  (1) 
8.828420921346199

>  <JCHEM_POLAR_SURFACE_AREA>  (1) 
67.87

>  <JCHEM_REFRACTIVITY>  (1) 
96.31859999999999

>  <JCHEM_ROTATABLE_BOND_COUNT>  (1) 
10

>  <JCHEM_RULE_OF_FIVE>  (1) 
1

>  <JCHEM_TRADITIONAL_IUPAC>  (1) 
roxatidine acetate

>  <JCHEM_VEBER_RULE>  (1) 
0

>  <MOLECULAR_WEIGHT>  (1) 
348.4366

>  <SALTS>  (1) 
Roxatidine acetate hydrochloride

>  <SMILES>  (1) 
CC(=O)OCC(=O)NCCCOC1=CC=CC(CN2CCCCC2)=C1

>  <SYNONYMS>  (1) 
Pifatidine

$$$$
