
     RDKit          2D

 32 33  0  0  0  0  0  0  0  0999 V2000
   10.6425   -9.9000    0.0000 C   0  0  0  0  0  0  0  0  0  0  0  0
   10.6425  -10.7250    0.0000 C   0  0  0  0  0  0  0  0  0  0  0  0
   11.3570  -11.1375    0.0000 C   0  0  0  0  0  0  0  0  0  0  0  0
   12.0715  -10.7250    0.0000 C   0  0  0  0  0  0  0  0  0  0  0  0
   12.0715   -9.9000    0.0000 C   0  0  0  0  0  0  0  0  0  0  0  0
   11.3570   -9.4875    0.0000 C   0  0  0  0  0  0  0  0  0  0  0  0
   12.8007   -9.4875    0.0000 N   0  0  0  0  0  0  0  0  0  0  0  0
   13.5152   -9.9000    0.0000 C   0  0  0  0  0  0  0  0  0  0  0  0
   14.2297   -9.4875    0.0000 C   0  0  0  0  0  0  0  0  0  0  0  0
    9.9281   -9.4875    0.0000 As  0  0  0  0  0  0  0  0  0  0  0  0
    9.8420   -8.6685    0.0000 S   0  0  0  0  0  0  0  0  0  0  0  0
    9.0365   -8.4973    0.0000 C   0  0  0  0  0  0  0  0  0  0  0  0
    8.6247   -9.2104    0.0000 C   0  0  0  0  0  0  0  0  0  0  0  0
    9.1757   -9.8224    0.0000 S   0  0  0  0  0  0  0  0  0  0  0  0
    7.8021   -9.2969    0.0000 C   0  0  0  0  0  0  0  0  0  0  0  0
    7.3077   -8.6165    0.0000 O   0  0  0  0  0  0  0  0  0  0  0  0
   12.7969  -11.1440    0.0000 O   0  0  0  0  0  0  0  0  0  0  0  0
   13.5152  -10.7249    0.0000 O   0  0  0  0  0  0  0  0  0  0  0  0
    0.0000    0.0000    0.0000 H   0  0  0  0  0  0  0  0  0  0  0  0
    0.0000    0.0000    0.0000 H   0  0  0  0  0  0  0  0  0  0  0  0
    0.0000    0.0000    0.0000 H   0  0  0  0  0  0  0  0  0  0  0  0
    0.0000    0.0000    0.0000 H   0  0  0  0  0  0  0  0  0  0  0  0
    0.0000    0.0000    0.0000 H   0  0  0  0  0  0  0  0  0  0  0  0
    0.0000    0.0000    0.0000 H   0  0  0  0  0  0  0  0  0  0  0  0
    0.0000    0.0000    0.0000 H   0  0  0  0  0  0  0  0  0  0  0  0
    0.0000    0.0000    0.0000 H   0  0  0  0  0  0  0  0  0  0  0  0
    0.0000    0.0000    0.0000 H   0  0  0  0  0  0  0  0  0  0  0  0
    0.0000    0.0000    0.0000 H   0  0  0  0  0  0  0  0  0  0  0  0
    0.0000    0.0000    0.0000 H   0  0  0  0  0  0  0  0  0  0  0  0
    0.0000    0.0000    0.0000 H   0  0  0  0  0  0  0  0  0  0  0  0
    0.0000    0.0000    0.0000 H   0  0  0  0  0  0  0  0  0  0  0  0
    0.0000    0.0000    0.0000 H   0  0  0  0  0  0  0  0  0  0  0  0
  1  2  2  0
  2  3  1  0
  3  4  2  0
  4  5  1  0
  5  6  2  0
  1  6  1  0
  5  7  1  0
  7  8  1  0
  8  9  1  0
  1 10  1  0
 10 11  1  0
 11 12  1  0
 12 13  1  0
 13 14  1  0
 10 14  1  0
 13 15  1  0
 15 16  1  0
  4 17  1  0
  8 18  2  0
  2 19  1  0
  3 20  1  0
  6 21  1  0
  7 22  1  0
  9 23  1  0
  9 24  1  0
  9 25  1  0
 12 26  1  0
 12 27  1  0
 13 28  1  0
 15 29  1  0
 15 30  1  0
 16 31  1  0
 17 32  1  0
M  END
>  <DATABASE_ID>  (1) 
DB08928

>  <DATABASE_NAME>  (1) 
drugbank

>  <DRUGBANK_ID>  (1) 
DB08928

>  <DRUG_GROUPS>  (1) 
approved

>  <EXACT_MASS>  (1) 
346.963106116

>  <FORMULA>  (1) 
C11H14AsNO3S2

>  <GENERIC_NAME>  (1) 
Arsthinol

>  <INCHI_IDENTIFIER>  (1) 
InChI=1S/C11H14AsNO3S2/c1-7(15)13-10-4-8(2-3-11(10)16)12-17-6-9(5-14)18-12/h2-4,9,14,16H,5-6H2,1H3,(H,13,15)

>  <INCHI_KEY>  (1) 
MRUDSZSRLQAPOG-UHFFFAOYSA-N

>  <INTERNATIONAL_BRANDS>  (1) 
Balarsen

>  <JCHEM_ACCEPTOR_COUNT>  (1) 
3

>  <JCHEM_AVERAGE_POLARIZABILITY>  (1) 
30.91557173754548

>  <JCHEM_BIOAVAILABILITY>  (1) 
1

>  <JCHEM_DONOR_COUNT>  (1) 
3

>  <JCHEM_FORMAL_CHARGE>  (1) 
0

>  <JCHEM_GHOSE_FILTER>  (1) 
1

>  <JCHEM_IUPAC>  (1) 
N-{2-hydroxy-5-[4-(hydroxymethyl)-1,3,2-dithiarsolan-2-yl]phenyl}acetamide

>  <JCHEM_LOGP>  (1) 
1.1142000000000003

>  <JCHEM_MDDR_LIKE_RULE>  (1) 
0

>  <JCHEM_NUMBER_OF_RINGS>  (1) 
2

>  <JCHEM_PHYSIOLOGICAL_CHARGE>  (1) 
0

>  <JCHEM_PKA>  (1) 
14.828585886630663

>  <JCHEM_PKA_STRONGEST_ACIDIC>  (1) 
8.523478073560646

>  <JCHEM_PKA_STRONGEST_BASIC>  (1) 
-2.783282211685032

>  <JCHEM_POLAR_SURFACE_AREA>  (1) 
69.56

>  <JCHEM_REFRACTIVITY>  (1) 
73.33429999999998

>  <JCHEM_ROTATABLE_BOND_COUNT>  (1) 
3

>  <JCHEM_RULE_OF_FIVE>  (1) 
1

>  <JCHEM_TRADITIONAL_IUPAC>  (1) 
arsthinol

>  <JCHEM_VEBER_RULE>  (1) 
0

>  <MOLECULAR_WEIGHT>  (1) 
347.285

>  <SMILES>  (1) 
CC(=O)NC1=CC(=CC=C1O)[As]1SCC(CO)S1

>  <SYNONYMS>  (1) 
Arsthinenol

$$$$
