2200
     RDKit          2D

 39 41  0  0  1  0  0  0  0  0999 V2000
    4.5080   -0.0160    0.0000 N   0  0  0  0  0  0  0  0  0  0  0  0
    4.5550    1.7065    0.0000 N   0  0  0  0  0  0  0  0  0  0  0  0
    5.8899    1.7065    0.0000 N   0  0  0  0  0  0  0  0  0  0  0  0
    5.2224    0.3965    0.0000 C   0  0  0  0  0  0  0  0  0  0  0  0
    5.2224    1.2215    0.0000 C   0  0  0  0  0  0  0  0  0  0  0  0
    3.7935    0.3965    0.0000 C   0  0  0  0  0  0  0  0  0  0  0  0
    4.8099    2.4911    0.0000 C   0  0  0  0  0  0  0  0  0  0  0  0
    4.5080   -0.8410    0.0000 C   0  0  0  0  0  0  0  0  0  0  0  0
    5.6350    2.4911    0.0000 C   0  0  0  0  0  0  0  0  0  0  0  0
    3.0790   -0.0160    0.0000 C   0  0  0  0  0  0  0  0  0  0  0  0
    5.2224   -1.2535    0.0000 C   0  0  0  0  0  0  0  0  0  0  0  0
    3.7935   -1.2535    0.0000 C   0  0  0  0  0  0  0  0  0  0  0  0
    3.0790   -0.8410    0.0000 C   0  0  0  0  0  0  0  0  0  0  0  0
    2.3645    0.3965    0.0000 C   0  0  0  0  0  0  0  0  0  0  0  0
    5.2224   -2.0786    0.0000 C   0  0  0  0  0  0  0  0  0  0  0  0
    3.7935   -2.0786    0.0000 C   0  0  0  0  0  0  0  0  0  0  0  0
    2.3645   -1.2535    0.0000 C   0  0  0  0  0  0  0  0  0  0  0  0
    1.6500   -0.0160    0.0000 C   0  0  0  0  0  0  0  0  0  0  0  0
    4.5080   -2.4911    0.0000 C   0  0  0  0  0  0  0  0  0  0  0  0
    1.6500   -0.8410    0.0000 C   0  0  0  0  0  0  0  0  0  0  0  0
    0.0000    0.0000    0.0000 H   0  0  0  0  0  0  0  0  0  0  0  0
    0.0000    0.0000    0.0000 H   0  0  0  0  0  0  0  0  0  0  0  0
    0.0000    0.0000    0.0000 H   0  0  0  0  0  0  0  0  0  0  0  0
    0.0000    0.0000    0.0000 H   0  0  0  0  0  0  0  0  0  0  0  0
    0.0000    0.0000    0.0000 H   0  0  0  0  0  0  0  0  0  0  0  0
    0.0000    0.0000    0.0000 H   0  0  0  0  0  0  0  0  0  0  0  0
    0.0000    0.0000    0.0000 H   0  0  0  0  0  0  0  0  0  0  0  0
    0.0000    0.0000    0.0000 H   0  0  0  0  0  0  0  0  0  0  0  0
    0.0000    0.0000    0.0000 H   0  0  0  0  0  0  0  0  0  0  0  0
    0.0000    0.0000    0.0000 H   0  0  0  0  0  0  0  0  0  0  0  0
    0.0000    0.0000    0.0000 H   0  0  0  0  0  0  0  0  0  0  0  0
    0.0000    0.0000    0.0000 H   0  0  0  0  0  0  0  0  0  0  0  0
    0.0000    0.0000    0.0000 H   0  0  0  0  0  0  0  0  0  0  0  0
    0.0000    0.0000    0.0000 H   0  0  0  0  0  0  0  0  0  0  0  0
    0.0000    0.0000    0.0000 H   0  0  0  0  0  0  0  0  0  0  0  0
    0.0000    0.0000    0.0000 H   0  0  0  0  0  0  0  0  0  0  0  0
    0.0000    0.0000    0.0000 H   0  0  0  0  0  0  0  0  0  0  0  0
    0.0000    0.0000    0.0000 H   0  0  0  0  0  0  0  0  0  0  0  0
    0.0000    0.0000    0.0000 H   0  0  0  0  0  0  0  0  0  0  0  0
  1  4  1  0
  1  6  1  0
  1  8  1  0
  2  5  1  0
  2  7  1  0
  3  5  2  0
  3  9  1  0
  4  5  1  0
  6 10  1  0
  7  9  1  0
  8 11  2  0
  8 12  1  0
 10 13  2  0
 10 14  1  0
 11 15  1  0
 12 16  2  0
 13 17  1  0
 14 18  2  0
 15 19  2  0
 16 19  1  0
 17 20  2  0
 18 20  1  0
  2 21  1  0
  4 22  1  0
  4 23  1  0
  6 24  1  0
  6 25  1  0
  7 26  1  0
  7 27  1  0
  9 28  1  0
  9 29  1  0
 11 30  1  0
 12 31  1  0
 13 32  1  0
 14 33  1  0
 15 34  1  0
 16 35  1  0
 17 36  1  0
 18 37  1  0
 19 38  1  0
 20 39  1  0
M  END
>  <ALOGPS_LOGP>  (1) 
3.22

>  <ALOGPS_LOGS>  (1) 
-3.37

>  <ALOGPS_SOLUBILITY>  (1) 
1.14e-01 g/l

>  <DATABASE_ID>  (1) 
DB08799

>  <DATABASE_NAME>  (1) 
drugbank

>  <DRUGBANK_ID>  (1) 
DB08799

>  <DRUG_GROUPS>  (1) 
approved

>  <EXACT_MASS>  (1) 
265.157897623

>  <FORMULA>  (1) 
C17H19N3

>  <GENERIC_NAME>  (1) 
Antazoline

>  <INCHI_IDENTIFIER>  (1) 
InChI=1S/C17H19N3/c1-3-7-15(8-4-1)13-20(14-17-18-11-12-19-17)16-9-5-2-6-10-16/h1-10H,11-14H2,(H,18,19)

>  <INCHI_KEY>  (1) 
REYFJDPCWQRWAA-UHFFFAOYSA-N

>  <JCHEM_ACCEPTOR_COUNT>  (1) 
3

>  <JCHEM_AVERAGE_POLARIZABILITY>  (1) 
30.112006797685712

>  <JCHEM_BIOAVAILABILITY>  (1) 
1

>  <JCHEM_DONOR_COUNT>  (1) 
1

>  <JCHEM_FORMAL_CHARGE>  (1) 
0

>  <JCHEM_GHOSE_FILTER>  (1) 
1

>  <JCHEM_IUPAC>  (1) 
N-benzyl-N-(4,5-dihydro-1H-imidazol-2-ylmethyl)aniline

>  <JCHEM_LOGP>  (1) 
2.8763921879999996

>  <JCHEM_MDDR_LIKE_RULE>  (1) 
0

>  <JCHEM_NUMBER_OF_RINGS>  (1) 
3

>  <JCHEM_PHYSIOLOGICAL_CHARGE>  (1) 
1

>  <JCHEM_PKA_STRONGEST_BASIC>  (1) 
9.24373819787142

>  <JCHEM_POLAR_SURFACE_AREA>  (1) 
27.63

>  <JCHEM_REFRACTIVITY>  (1) 
82.88750000000003

>  <JCHEM_ROTATABLE_BOND_COUNT>  (1) 
5

>  <JCHEM_RULE_OF_FIVE>  (1) 
1

>  <JCHEM_TRADITIONAL_IUPAC>  (1) 
antazoline

>  <JCHEM_VEBER_RULE>  (1) 
1

>  <MOLECULAR_WEIGHT>  (1) 
265.3529

>  <PRODUCTS>  (1) 
Albalon A; Cooper A.R.; Nestabs ONE; Ophtrivin A Ophthalmic Dps; Refresh Eye Allergy Relief; Steritears Ar; Vasocon A Eye Drops; Vasocon A Oph Soln; Zincfrin A

>  <SALTS>  (1) 
Antazoline phosphate; Antazoline sulfate

>  <SMILES>  (1) 
C(N(CC1=CC=CC=C1)C1=CC=CC=C1)C1=NCCN1

$$$$
