 
     RDKit          2D

 52 54  0  0  1  0  0  0  0  0999 V2000
    9.5649  -18.6743    0.0000 C   0  0  0  0  0  0  0  0  0  0  0  0
    9.5649  -17.8462    0.0000 C   0  0  0  0  0  0  0  0  0  0  0  0
   10.2688  -17.4321    0.0000 C   0  0  0  0  0  0  0  0  0  0  0  0
   11.0141  -17.8462    0.0000 C   0  0  0  0  0  0  0  0  0  0  0  0
   11.0141  -18.6743    0.0000 C   0  0  0  0  0  0  0  0  0  0  0  0
   10.2688  -19.0884    0.0000 C   0  0  0  0  0  0  0  0  0  0  0  0
   11.7180  -19.0884    0.0000 C   0  0  0  0  0  0  0  0  0  0  0  0
   12.4219  -18.6743    0.0000 C   0  0  0  0  0  0  0  0  0  0  0  0
   13.1259  -19.0884    0.0000 N   0  0  0  0  0  0  0  0  0  0  0  0
   13.8297  -18.6743    0.0000 C   0  0  0  0  0  0  0  0  0  0  0  0
   14.5336  -19.0884    0.0000 C   0  0  0  0  0  0  0  0  0  0  0  0
   15.2376  -18.6743    0.0000 C   0  0  0  0  0  0  0  0  0  0  0  0
   15.2376  -17.8462    0.0000 C   0  0  0  0  0  0  0  0  0  0  0  0
   15.9829  -17.4321    0.0000 C   0  0  0  0  0  0  0  0  0  0  0  0
   16.6868  -17.8462    0.0000 C   0  0  0  0  0  0  0  0  0  0  0  0
   16.6868  -18.6743    0.0000 C   0  0  0  0  0  0  0  0  0  0  0  0
   15.9829  -19.0884    0.0000 C   0  0  0  0  0  0  0  0  0  0  0  0
   17.3907  -17.4321    0.0000 N   0  0  0  0  0  0  0  0  0  0  0  0
   18.0946  -17.8462    0.0000 C   0  0  0  0  0  0  0  0  0  0  0  0
   18.0946  -18.6743    0.0000 O   0  0  0  0  0  0  0  0  0  0  0  0
   11.7180  -19.9165    0.0000 O   0  0  0  0  0  0  0  0  0  0  0  0
   18.8135  -17.4350    0.0000 C   0  0  0  0  0  0  0  0  0  0  0  0
   19.5164  -17.8449    0.0000 C   0  0  0  0  0  0  0  0  0  0  0  0
   19.7653  -18.6314    0.0000 C   0  0  0  0  0  0  0  0  0  0  0  0
   20.5932  -18.6382    0.0000 S   0  0  0  0  0  0  0  0  0  0  0  0
   20.8556  -17.8530    0.0000 C   0  0  0  0  0  0  0  0  0  0  0  0
   20.1897  -17.3608    0.0000 N   0  0  0  0  0  0  0  0  0  0  0  0
   21.6592  -17.5991    0.0000 N   0  0  0  0  0  0  0  0  0  0  0  0
    0.0000    0.0000    0.0000 H   0  0  0  0  0  0  0  0  0  0  0  0
    0.0000    0.0000    0.0000 H   0  0  0  0  0  0  0  0  0  0  0  0
    0.0000    0.0000    0.0000 H   0  0  0  0  0  0  0  0  0  0  0  0
    0.0000    0.0000    0.0000 H   0  0  0  0  0  0  0  0  0  0  0  0
    0.0000    0.0000    0.0000 H   0  0  0  0  0  0  0  0  0  0  0  0
    0.0000    0.0000    0.0000 H   0  0  0  0  0  0  0  0  0  0  0  0
    0.0000    0.0000    0.0000 H   0  0  0  0  0  0  0  0  0  0  0  0
    0.0000    0.0000    0.0000 H   0  0  0  0  0  0  0  0  0  0  0  0
    0.0000    0.0000    0.0000 H   0  0  0  0  0  0  0  0  0  0  0  0
    0.0000    0.0000    0.0000 H   0  0  0  0  0  0  0  0  0  0  0  0
    0.0000    0.0000    0.0000 H   0  0  0  0  0  0  0  0  0  0  0  0
    0.0000    0.0000    0.0000 H   0  0  0  0  0  0  0  0  0  0  0  0
    0.0000    0.0000    0.0000 H   0  0  0  0  0  0  0  0  0  0  0  0
    0.0000    0.0000    0.0000 H   0  0  0  0  0  0  0  0  0  0  0  0
    0.0000    0.0000    0.0000 H   0  0  0  0  0  0  0  0  0  0  0  0
    0.0000    0.0000    0.0000 H   0  0  0  0  0  0  0  0  0  0  0  0
    0.0000    0.0000    0.0000 H   0  0  0  0  0  0  0  0  0  0  0  0
    0.0000    0.0000    0.0000 H   0  0  0  0  0  0  0  0  0  0  0  0
    0.0000    0.0000    0.0000 H   0  0  0  0  0  0  0  0  0  0  0  0
    0.0000    0.0000    0.0000 H   0  0  0  0  0  0  0  0  0  0  0  0
    0.0000    0.0000    0.0000 H   0  0  0  0  0  0  0  0  0  0  0  0
    0.0000    0.0000    0.0000 H   0  0  0  0  0  0  0  0  0  0  0  0
    0.0000    0.0000    0.0000 H   0  0  0  0  0  0  0  0  0  0  0  0
    0.0000    0.0000    0.0000 H   0  0  0  0  0  0  0  0  0  0  0  0
  1  2  2  0
  2  3  1  0
  3  4  2  0
  4  5  1  0
  5  6  2  0
  1  6  1  0
  7  5  1  6
  7  8  1  0
  8  9  1  0
  9 10  1  0
 10 11  1  0
 11 12  1  0
 12 13  2  0
 13 14  1  0
 14 15  2  0
 15 16  1  0
 16 17  2  0
 12 17  1  0
 15 18  1  0
 18 19  1  0
 19 20  2  0
  7 21  1  0
 19 22  1  0
 22 23  1  0
 23 24  2  0
 24 25  1  0
 25 26  1  0
 26 27  2  0
 23 27  1  0
 26 28  1  0
  1 29  1  0
  2 30  1  0
  3 31  1  0
  4 32  1  0
  6 33  1  0
  7 34  1  0
  8 35  1  0
  8 36  1  0
  9 37  1  0
 10 38  1  0
 10 39  1  0
 11 40  1  0
 11 41  1  0
 13 42  1  0
 14 43  1  0
 16 44  1  0
 17 45  1  0
 18 46  1  0
 21 47  1  0
 22 48  1  0
 22 49  1  0
 24 50  1  0
 28 51  1  0
 28 52  1  0
M  END
>  <ALOGPS_LOGP>  (1) 
2.20

>  <ALOGPS_LOGS>  (1) 
-4.98

>  <ALOGPS_SOLUBILITY>  (1) 
4.12e-03 g/l

>  <DATABASE_ID>  (1) 
DB08893

>  <DATABASE_NAME>  (1) 
drugbank

>  <DRUGBANK_ID>  (1) 
DB08893

>  <DRUG_GROUPS>  (1) 
approved

>  <EXACT_MASS>  (1) 
396.161996722

>  <FORMULA>  (1) 
C21H24N4O2S

>  <GENERIC_NAME>  (1) 
Mirabegron

>  <INCHI_IDENTIFIER>  (1) 
InChI=1S/C21H24N4O2S/c22-21-25-18(14-28-21)12-20(27)24-17-8-6-15(7-9-17)10-11-23-13-19(26)16-4-2-1-3-5-16/h1-9,14,19,23,26H,10-13H2,(H2,22,25)(H,24,27)/t19-/m0/s1

>  <INCHI_KEY>  (1) 
PBAPPPCECJKMCM-IBGZPJMESA-N

>  <INTERNATIONAL_BRANDS>  (1) 
Betanis; Metmiga 

>  <JCHEM_ACCEPTOR_COUNT>  (1) 
5

>  <JCHEM_AVERAGE_POLARIZABILITY>  (1) 
44.20313591729928

>  <JCHEM_BIOAVAILABILITY>  (1) 
1

>  <JCHEM_DONOR_COUNT>  (1) 
4

>  <JCHEM_FORMAL_CHARGE>  (1) 
0

>  <JCHEM_GHOSE_FILTER>  (1) 
1

>  <JCHEM_IUPAC>  (1) 
2-(2-amino-1,3-thiazol-4-yl)-N-[4-(2-{[(2R)-2-hydroxy-2-phenylethyl]amino}ethyl)phenyl]acetamide

>  <JCHEM_LOGP>  (1) 
2.8864113700000003

>  <JCHEM_MDDR_LIKE_RULE>  (1) 
1

>  <JCHEM_NUMBER_OF_RINGS>  (1) 
3

>  <JCHEM_PHYSIOLOGICAL_CHARGE>  (1) 
1

>  <JCHEM_PKA>  (1) 
14.438041725992928

>  <JCHEM_PKA_STRONGEST_ACIDIC>  (1) 
13.836274352409326

>  <JCHEM_PKA_STRONGEST_BASIC>  (1) 
9.621991311185106

>  <JCHEM_POLAR_SURFACE_AREA>  (1) 
100.27

>  <JCHEM_REFRACTIVITY>  (1) 
113.23109999999998

>  <JCHEM_ROTATABLE_BOND_COUNT>  (1) 
9

>  <JCHEM_RULE_OF_FIVE>  (1) 
1

>  <JCHEM_TRADITIONAL_IUPAC>  (1) 
mirabegron

>  <JCHEM_VEBER_RULE>  (1) 
0

>  <MOLECULAR_WEIGHT>  (1) 
396.506

>  <PRODUCTS>  (1) 
Betmiga; Myrbetriq

>  <SMILES>  (1) 
NC1=NC(CC(=O)NC2=CC=C(CCNC[C@H](O)C3=CC=CC=C3)C=C2)=CS1

$$$$
