
     RDKit          2D

 63 67  0  0  1  0  0  0  0  0999 V2000
   -4.2483    5.9646    0.0000 C   0  0  0  0  0  0  0  0  0  0  0  0
    2.7845    2.3479    0.0000 C   0  0  0  0  0  0  0  0  0  0  0  0
   -0.0734    2.3479    0.0000 C   0  0  0  0  0  0  0  0  0  0  0  0
   -3.4413    5.7931    0.0000 C   0  0  0  0  0  0  0  0  0  0  0  0
   -2.6344    5.6215    0.0000 C   0  0  0  0  0  0  0  0  0  0  0  0
    4.9279    3.5854    0.0000 C   0  0  0  0  0  0  0  0  0  0  0  0
    4.9279    4.4104    0.0000 C   0  0  0  0  0  0  0  0  0  0  0  0
   -4.1199    4.7124    0.0000 C   0  0  0  0  0  0  0  0  0  0  0  0
   -4.5324    3.9979    0.0000 C   0  0  0  0  0  0  0  0  0  0  0  0
    4.2135    3.1729    0.0000 C   0  0  0  0  0  0  0  0  0  0  0  0
    4.2135    4.8229    0.0000 C   0  0  0  0  0  0  0  0  0  0  0  0
   -3.2949    4.7124    0.0000 C   0  0  0  0  0  0  0  0  0  0  0  0
   -1.8274    5.4500    0.0000 C   0  0  0  0  0  0  0  0  0  0  0  0
   -3.2949    3.2835    0.0000 C   0  0  0  0  0  0  0  0  0  0  0  0
    1.3556    4.8229    0.0000 C   0  0  0  0  0  0  0  0  0  0  0  0
    2.7845    3.1729    0.0000 C   0  0  0  0  0  0  0  0  0  0  0  0
   -4.1199    3.2835    0.0000 C   0  0  0  0  0  0  0  0  0  0  0  0
    3.4990    3.5854    0.0000 C   0  0  0  0  0  0  0  0  0  0  0  0
    3.4990    4.4104    0.0000 C   0  0  0  0  0  0  0  0  0  0  0  0
    2.0701    4.4104    0.0000 C   0  0  0  0  0  0  0  0  0  0  0  0
   -0.7878    4.4104    0.0000 C   0  0  0  0  0  0  0  0  0  0  0  0
   -0.7878    3.5854    0.0000 C   0  0  0  0  0  0  0  0  0  0  0  0
   -0.0734    4.8229    0.0000 C   0  0  0  0  0  0  0  0  0  0  0  0
   -2.0574    3.9979    0.0000 C   0  0  0  0  0  0  0  0  0  0  0  0
    0.6411    3.5854    0.0000 C   0  0  0  0  0  0  0  0  0  0  0  0
   -4.5324    2.5690    0.0000 N   0  0  0  0  0  0  0  0  0  0  0  0
    2.0701    3.5854    0.0000 N   0  0  0  0  0  0  0  0  0  0  0  0
    2.7845    4.8229    0.0000 N   0  0  0  0  0  0  0  0  0  0  0  0
   -1.5724    3.3305    0.0000 N   0  0  0  0  0  0  0  0  0  0  0  0
   -0.0734    3.1729    0.0000 N   0  0  0  0  0  0  0  0  0  0  0  0
   -2.8824    3.9979    0.0000 N   0  0  0  0  0  0  0  0  0  0  0  0
   -1.5724    4.6654    0.0000 N   0  0  0  0  0  0  0  0  0  0  0  0
    0.6411    4.4104    0.0000 N   0  0  0  0  0  0  0  0  0  0  0  0
   -0.0734    5.6479    0.0000 O   0  0  0  0  0  0  0  0  0  0  0  0
    1.3556    3.1729    0.0000 O   0  0  0  0  0  0  0  0  0  0  0  0
    0.0000    0.0000    0.0000 H   0  0  0  0  0  0  0  0  0  0  0  0
    0.0000    0.0000    0.0000 H   0  0  0  0  0  0  0  0  0  0  0  0
    0.0000    0.0000    0.0000 H   0  0  0  0  0  0  0  0  0  0  0  0
    0.0000    0.0000    0.0000 H   0  0  0  0  0  0  0  0  0  0  0  0
    0.0000    0.0000    0.0000 H   0  0  0  0  0  0  0  0  0  0  0  0
    0.0000    0.0000    0.0000 H   0  0  0  0  0  0  0  0  0  0  0  0
    0.0000    0.0000    0.0000 H   0  0  0  0  0  0  0  0  0  0  0  0
    0.0000    0.0000    0.0000 H   0  0  0  0  0  0  0  0  0  0  0  0
    0.0000    0.0000    0.0000 H   0  0  0  0  0  0  0  0  0  0  0  0
    0.0000    0.0000    0.0000 H   0  0  0  0  0  0  0  0  0  0  0  0
    0.0000    0.0000    0.0000 H   0  0  0  0  0  0  0  0  0  0  0  0
    0.0000    0.0000    0.0000 H   0  0  0  0  0  0  0  0  0  0  0  0
    0.0000    0.0000    0.0000 H   0  0  0  0  0  0  0  0  0  0  0  0
    0.0000    0.0000    0.0000 H   0  0  0  0  0  0  0  0  0  0  0  0
    0.0000    0.0000    0.0000 H   0  0  0  0  0  0  0  0  0  0  0  0
    0.0000    0.0000    0.0000 H   0  0  0  0  0  0  0  0  0  0  0  0
    0.0000    0.0000    0.0000 H   0  0  0  0  0  0  0  0  0  0  0  0
    0.0000    0.0000    0.0000 H   0  0  0  0  0  0  0  0  0  0  0  0
    0.0000    0.0000    0.0000 H   0  0  0  0  0  0  0  0  0  0  0  0
    0.0000    0.0000    0.0000 H   0  0  0  0  0  0  0  0  0  0  0  0
    0.0000    0.0000    0.0000 H   0  0  0  0  0  0  0  0  0  0  0  0
    0.0000    0.0000    0.0000 H   0  0  0  0  0  0  0  0  0  0  0  0
    0.0000    0.0000    0.0000 H   0  0  0  0  0  0  0  0  0  0  0  0
    0.0000    0.0000    0.0000 H   0  0  0  0  0  0  0  0  0  0  0  0
    0.0000    0.0000    0.0000 H   0  0  0  0  0  0  0  0  0  0  0  0
    0.0000    0.0000    0.0000 H   0  0  0  0  0  0  0  0  0  0  0  0
    0.0000    0.0000    0.0000 H   0  0  0  0  0  0  0  0  0  0  0  0
    0.0000    0.0000    0.0000 H   0  0  0  0  0  0  0  0  0  0  0  0
  4  1  1  0
  5  4  3  0
  7  6  2  0
  9  8  1  0
 10  6  1  0
 11  7  1  0
 12  8  1  0
 13  5  1  0
 16  2  1  0
 17  9  1  0
 17 14  1  0
 18 10  2  0
 18 16  1  0
 19 11  2  0
 19 18  1  0
 20 15  1  0
 22 21  2  0
 23 21  1  0
 17 26  1  6
 27 16  2  0
 27 20  1  0
 28 19  1  0
 28 20  2  0
 29 22  1  0
 29 24  2  0
 30  3  1  0
 30 22  1  0
 30 25  1  0
 31 12  1  0
 31 14  1  0
 31 24  1  0
 32 13  1  0
 32 21  1  0
 32 24  1  0
 33 15  1  0
 33 23  1  0
 33 25  1  0
 34 23  2  0
 35 25  2  0
  1 36  1  0
  1 37  1  0
  1 38  1  0
  2 39  1  0
  2 40  1  0
  2 41  1  0
  3 42  1  0
  3 43  1  0
  3 44  1  0
  6 45  1  0
  7 46  1  0
  8 47  1  0
  8 48  1  0
  9 49  1  0
  9 50  1  0
 10 51  1  0
 11 52  1  0
 12 53  1  0
 12 54  1  0
 13 55  1  0
 13 56  1  0
 14 57  1  0
 14 58  1  0
 15 59  1  0
 15 60  1  0
 17 61  1  0
 26 62  1  0
 26 63  1  0
M  END
>  <ALOGPS_LOGP>  (1) 
2.62

>  <ALOGPS_LOGS>  (1) 
-3.97

>  <ALOGPS_SOLUBILITY>  (1) 
5.02e-02 g/l

>  <DATABASE_ID>  (1) 
DB08882

>  <DATABASE_NAME>  (1) 
drugbank

>  <DRUGBANK_ID>  (1) 
DB08882

>  <DRUG_GROUPS>  (1) 
approved

>  <EXACT_MASS>  (1) 
472.23352218

>  <FORMULA>  (1) 
C25H28N8O2

>  <GENERIC_NAME>  (1) 
Linagliptin

>  <INCHI_IDENTIFIER>  (1) 
InChI=1S/C25H28N8O2/c1-4-5-13-32-21-22(29-24(32)31-12-8-9-17(26)14-31)30(3)25(35)33(23(21)34)15-20-27-16(2)18-10-6-7-11-19(18)28-20/h6-7,10-11,17H,8-9,12-15,26H2,1-3H3/t17-/m1/s1

>  <INCHI_KEY>  (1) 
LTXREWYXXSTFRX-QGZVFWFLSA-N

>  <JCHEM_ACCEPTOR_COUNT>  (1) 
7

>  <JCHEM_AVERAGE_POLARIZABILITY>  (1) 
51.23805993897324

>  <JCHEM_BIOAVAILABILITY>  (1) 
1

>  <JCHEM_DONOR_COUNT>  (1) 
1

>  <JCHEM_FORMAL_CHARGE>  (1) 
0

>  <JCHEM_GHOSE_FILTER>  (1) 
0

>  <JCHEM_IUPAC>  (1) 
8-[(3R)-3-aminopiperidin-1-yl]-7-(but-2-yn-1-yl)-3-methyl-1-[(4-methylquinazolin-2-yl)methyl]-2,3,6,7-tetrahydro-1H-purine-2,6-dione

>  <JCHEM_LOGP>  (1) 
2.8026328140000007

>  <JCHEM_MDDR_LIKE_RULE>  (1) 
0

>  <JCHEM_NUMBER_OF_RINGS>  (1) 
5

>  <JCHEM_PHYSIOLOGICAL_CHARGE>  (1) 
1

>  <JCHEM_PKA_STRONGEST_BASIC>  (1) 
9.863575389806465

>  <JCHEM_POLAR_SURFACE_AREA>  (1) 
113.47999999999999

>  <JCHEM_REFRACTIVITY>  (1) 
133.43240000000003

>  <JCHEM_ROTATABLE_BOND_COUNT>  (1) 
5

>  <JCHEM_RULE_OF_FIVE>  (1) 
1

>  <JCHEM_TRADITIONAL_IUPAC>  (1) 
linagliptin

>  <JCHEM_VEBER_RULE>  (1) 
0

>  <MOLECULAR_WEIGHT>  (1) 
472.5422

>  <PRODUCTS>  (1) 
Glyxambi; Jentadueto; Jentadueto XR; Tradjenta; Trajenta

>  <SMILES>  (1) 
[H][C@@]1(N)CCCN(C1)C1=NC2=C(N1CC#CC)C(=O)N(CC1=NC3=CC=CC=C3C(C)=N1)C(=O)N2C

>  <SYNONYMS>  (1) 
Trajenta

$$$$
