
     RDKit          2D

 66 66  0  0  0  0  0  0  0  0999 V2000
   -2.5715    0.4053    0.0000 C   0  0  0  0  0  0  0  0  0  0  0  0
   -2.5715   -0.4192    0.0000 C   0  0  0  0  0  0  0  0  0  0  0  0
   -3.3686    0.6527    0.0000 C   0  0  0  0  0  0  0  0  0  0  0  0
   -1.8568    1.0233    0.0000 C   0  0  0  0  0  0  0  0  0  0  0  0
   -3.3686   -0.6940    0.0000 C   0  0  0  0  0  0  0  0  0  0  0  0
   -1.8568   -1.0373    0.0000 C   0  0  0  0  0  0  0  0  0  0  0  0
   -3.8358   -0.0344    0.0000 C   0  0  0  0  0  0  0  0  0  0  0  0
   -3.6161    1.4224    0.0000 O   0  0  0  0  0  0  0  0  0  0  0  0
   -3.6161   -1.4638    0.0000 O   0  0  0  0  0  0  0  0  0  0  0  0
   -1.1420   -0.6249    0.0000 C   0  0  0  0  0  0  0  0  0  0  0  0
   -0.4274   -1.0373    0.0000 C   0  0  0  0  0  0  0  0  0  0  0  0
    0.2872   -0.6249    0.0000 C   0  0  0  0  0  0  0  0  0  0  0  0
    1.0019   -1.0373    0.0000 C   0  0  0  0  0  0  0  0  0  0  0  0
    1.7165   -0.6249    0.0000 C   0  0  0  0  0  0  0  0  0  0  0  0
    2.4313   -1.0373    0.0000 C   0  0  0  0  0  0  0  0  0  0  0  0
    3.1459   -0.6249    0.0000 C   0  0  0  0  0  0  0  0  0  0  0  0
   -1.1552    0.6220    0.0000 C   0  0  0  0  0  0  0  0  0  0  0  0
   -0.4416    1.0341    0.0000 C   0  0  0  0  0  0  0  0  0  0  0  0
    0.2721    0.6220    0.0000 C   0  0  0  0  0  0  0  0  0  0  0  0
    0.9857    1.0341    0.0000 C   0  0  0  0  0  0  0  0  0  0  0  0
    1.6994    0.6220    0.0000 C   0  0  0  0  0  0  0  0  0  0  0  0
    2.4131    1.0341    0.0000 C   0  0  0  0  0  0  0  0  0  0  0  0
    3.1267    0.6220    0.0000 O   0  0  0  0  0  0  0  0  0  0  0  0
   -0.4275   -1.8660    0.0000 O   0  0  0  0  0  0  0  0  0  0  0  0
    0.8659   -0.0547    0.0000 C   0  0  0  0  0  0  0  0  0  0  0  0
   -0.2868   -0.0547    0.0000 C   0  0  0  0  0  0  0  0  0  0  0  0
    2.4132    1.8660    0.0000 O   0  0  0  0  0  0  0  0  0  0  0  0
    3.8358    1.0315    0.0000 C   0  0  0  0  0  0  0  0  0  0  0  0
    0.0000    0.0000    0.0000 H   0  0  0  0  0  0  0  0  0  0  0  0
    0.0000    0.0000    0.0000 H   0  0  0  0  0  0  0  0  0  0  0  0
    0.0000    0.0000    0.0000 H   0  0  0  0  0  0  0  0  0  0  0  0
    0.0000    0.0000    0.0000 H   0  0  0  0  0  0  0  0  0  0  0  0
    0.0000    0.0000    0.0000 H   0  0  0  0  0  0  0  0  0  0  0  0
    0.0000    0.0000    0.0000 H   0  0  0  0  0  0  0  0  0  0  0  0
    0.0000    0.0000    0.0000 H   0  0  0  0  0  0  0  0  0  0  0  0
    0.0000    0.0000    0.0000 H   0  0  0  0  0  0  0  0  0  0  0  0
    0.0000    0.0000    0.0000 H   0  0  0  0  0  0  0  0  0  0  0  0
    0.0000    0.0000    0.0000 H   0  0  0  0  0  0  0  0  0  0  0  0
    0.0000    0.0000    0.0000 H   0  0  0  0  0  0  0  0  0  0  0  0
    0.0000    0.0000    0.0000 H   0  0  0  0  0  0  0  0  0  0  0  0
    0.0000    0.0000    0.0000 H   0  0  0  0  0  0  0  0  0  0  0  0
    0.0000    0.0000    0.0000 H   0  0  0  0  0  0  0  0  0  0  0  0
    0.0000    0.0000    0.0000 H   0  0  0  0  0  0  0  0  0  0  0  0
    0.0000    0.0000    0.0000 H   0  0  0  0  0  0  0  0  0  0  0  0
    0.0000    0.0000    0.0000 H   0  0  0  0  0  0  0  0  0  0  0  0
    0.0000    0.0000    0.0000 H   0  0  0  0  0  0  0  0  0  0  0  0
    0.0000    0.0000    0.0000 H   0  0  0  0  0  0  0  0  0  0  0  0
    0.0000    0.0000    0.0000 H   0  0  0  0  0  0  0  0  0  0  0  0
    0.0000    0.0000    0.0000 H   0  0  0  0  0  0  0  0  0  0  0  0
    0.0000    0.0000    0.0000 H   0  0  0  0  0  0  0  0  0  0  0  0
    0.0000    0.0000    0.0000 H   0  0  0  0  0  0  0  0  0  0  0  0
    0.0000    0.0000    0.0000 H   0  0  0  0  0  0  0  0  0  0  0  0
    0.0000    0.0000    0.0000 H   0  0  0  0  0  0  0  0  0  0  0  0
    0.0000    0.0000    0.0000 H   0  0  0  0  0  0  0  0  0  0  0  0
    0.0000    0.0000    0.0000 H   0  0  0  0  0  0  0  0  0  0  0  0
    0.0000    0.0000    0.0000 H   0  0  0  0  0  0  0  0  0  0  0  0
    0.0000    0.0000    0.0000 H   0  0  0  0  0  0  0  0  0  0  0  0
    0.0000    0.0000    0.0000 H   0  0  0  0  0  0  0  0  0  0  0  0
    0.0000    0.0000    0.0000 H   0  0  0  0  0  0  0  0  0  0  0  0
    0.0000    0.0000    0.0000 H   0  0  0  0  0  0  0  0  0  0  0  0
    0.0000    0.0000    0.0000 H   0  0  0  0  0  0  0  0  0  0  0  0
    0.0000    0.0000    0.0000 H   0  0  0  0  0  0  0  0  0  0  0  0
    0.0000    0.0000    0.0000 H   0  0  0  0  0  0  0  0  0  0  0  0
    0.0000    0.0000    0.0000 H   0  0  0  0  0  0  0  0  0  0  0  0
    0.0000    0.0000    0.0000 H   0  0  0  0  0  0  0  0  0  0  0  0
    0.0000    0.0000    0.0000 H   0  0  0  0  0  0  0  0  0  0  0  0
  1  2  1  0
  1  3  1  0
  1  4  1  6
  2  5  1  0
  2  6  1  1
  3  7  1  0
  3  8  2  0
  5  9  1  6
  6 10  2  0
 11 10  1  6
 11 12  1  0
 12 13  1  0
 13 14  1  0
 14 15  1  0
 15 16  1  0
  5  7  1  0
  4 17  1  0
 17 18  1  0
 18 19  1  0
 19 20  1  0
 20 21  2  0
 21 22  1  0
 22 23  1  0
 11 24  1  0
 12 25  1  0
 12 26  1  0
 22 27  2  0
 23 28  1  0
  1 29  1  0
  2 30  1  0
  4 31  1  0
  4 32  1  0
  5 33  1  0
  6 34  1  0
  7 35  1  0
  7 36  1  0
  9 37  1  0
 10 38  1  0
 11 39  1  0
 13 40  1  0
 13 41  1  0
 14 42  1  0
 14 43  1  0
 15 44  1  0
 15 45  1  0
 16 46  1  0
 16 47  1  0
 16 48  1  0
 17 49  1  0
 17 50  1  0
 18 51  1  0
 18 52  1  0
 19 53  1  0
 19 54  1  0
 20 55  1  0
 21 56  1  0
 24 57  1  0
 25 58  1  0
 25 59  1  0
 25 60  1  0
 26 61  1  0
 26 62  1  0
 26 63  1  0
 28 64  1  0
 28 65  1  0
 28 66  1  0
M  END
>  <ALOGPS_LOGP>  (1) 
4.02

>  <ALOGPS_LOGS>  (1) 
-4.35

>  <ALOGPS_SOLUBILITY>  (1) 
1.76e-02 g/l

>  <DATABASE_ID>  (1) 
DB08964

>  <DATABASE_NAME>  (1) 
drugbank

>  <DRUGBANK_ID>  (1) 
DB08964

>  <DRUG_GROUPS>  (1) 
approved; withdrawn

>  <EXACT_MASS>  (1) 
394.271924324

>  <FORMULA>  (1) 
C23H38O5

>  <GENERIC_NAME>  (1) 
Gemeprost

>  <INCHI_IDENTIFIER>  (1) 
InChI=1S/C23H38O5/c1-5-6-15-23(2,3)21(26)14-13-18-17(19(24)16-20(18)25)11-9-7-8-10-12-22(27)28-4/h10,12-14,17-18,20-21,25-26H,5-9,11,15-16H2,1-4H3/b12-10+,14-13+/t17-,18-,20-,21-/m1/s1

>  <INCHI_KEY>  (1) 
KYBOHGVERHWSSV-VNIVIJDLSA-N

>  <INTERNATIONAL_BRANDS>  (1) 
Cergem; Cervagem; CervagÃ¨me; Cervidil

>  <JCHEM_ACCEPTOR_COUNT>  (1) 
4

>  <JCHEM_ATOM_COUNT>  (1) 
66

>  <JCHEM_AVERAGE_POLARIZABILITY>  (1) 
46.30028757993688

>  <JCHEM_BIOAVAILABILITY>  (1) 
1

>  <JCHEM_DONOR_COUNT>  (1) 
2

>  <JCHEM_FORMAL_CHARGE>  (1) 
0

>  <JCHEM_GHOSE_FILTER>  (1) 
1

>  <JCHEM_IUPAC>  (1) 
methyl (2E)-7-[(1R,2R,3R)-3-hydroxy-2-[(1E,3R)-3-hydroxy-4,4-dimethyloct-1-en-1-yl]-5-oxocyclopentyl]hept-2-enoate

>  <JCHEM_LOGP>  (1) 
4.707216349000003

>  <JCHEM_MDDR_LIKE_RULE>  (1) 
0

>  <JCHEM_NUMBER_OF_RINGS>  (1) 
1

>  <JCHEM_PHYSIOLOGICAL_CHARGE>  (1) 
0

>  <JCHEM_PKA>  (1) 
17.424965772518657

>  <JCHEM_PKA_STRONGEST_ACIDIC>  (1) 
14.680473082030609

>  <JCHEM_PKA_STRONGEST_BASIC>  (1) 
-1.1052306708791018

>  <JCHEM_POLAR_SURFACE_AREA>  (1) 
83.83000000000001

>  <JCHEM_REFRACTIVITY>  (1) 
113.05059999999997

>  <JCHEM_ROTATABLE_BOND_COUNT>  (1) 
13

>  <JCHEM_RULE_OF_FIVE>  (1) 
1

>  <JCHEM_TRADITIONAL_IUPAC>  (1) 
gemeprost

>  <JCHEM_VEBER_RULE>  (1) 
0

>  <MOLECULAR_WEIGHT>  (1) 
394.552

>  <SMILES>  (1) 
CCCCC(C)(C)[C@H](O)\C=C\[C@H]1[C@H](O)CC(=O)[C@@H]1CCCC\C=C\C(=O)OC

>  <SYNONYMS>  (1) 
16,16-Dimethyl-trans-delta-2-PGE1 methyl ester; 16,16-Dimethyl-trans-delta(sup 2)-prostaglandin E1 methyl ester; SC-37681

$$$$
