
     RDKit          2D

237247  0  0  0  0  0  0  0  0999 V2000
    5.8742   -1.5179    0.0000 C   0  0  0  0  0  0  0  0  0  0  0  0
   -8.8552   -1.5179    0.0000 C   0  0  0  0  0  0  0  0  0  0  0  0
    7.3620   -2.2919    0.0000 C   0  0  0  0  0  0  0  0  0  0  0  0
    7.3620   -1.5179    0.0000 C   0  0  0  0  0  0  0  0  0  0  0  0
    5.8742   -2.2919    0.0000 C   0  0  0  0  0  0  0  0  0  0  0  0
   -7.3620   -1.5179    0.0000 C   0  0  0  0  0  0  0  0  0  0  0  0
   -8.8552   -2.2919    0.0000 C   0  0  0  0  0  0  0  0  0  0  0  0
    6.6373   -1.1446    0.0000 C   0  0  0  0  0  0  0  0  0  0  0  0
    5.1111   -1.1446    0.0000 C   0  0  0  0  0  0  0  0  0  0  0  0
   -9.6239   -1.1446    0.0000 C   0  0  0  0  0  0  0  0  0  0  0  0
   -8.1305   -1.1446    0.0000 C   0  0  0  0  0  0  0  0  0  0  0  0
   -3.7277   -0.4473    0.0000 C   0  0  0  0  0  0  0  0  0  0  0  0
   11.1171   -0.3979    0.0000 C   0  0  0  0  0  0  0  0  0  0  0  0
    8.1305   -1.1446    0.0000 C   0  0  0  0  0  0  0  0  0  0  0  0
   -2.9919   -0.0796    0.0000 C   0  0  0  0  0  0  0  0  0  0  0  0
   11.8582   -0.0027    0.0000 C   0  0  0  0  0  0  0  0  0  0  0  0
   -7.3620   -2.2919    0.0000 C   0  0  0  0  0  0  0  0  0  0  0  0
    8.1305   -2.6598    0.0000 C   0  0  0  0  0  0  0  0  0  0  0  0
   12.6159   -0.3979    0.0000 C   0  0  0  0  0  0  0  0  0  0  0  0
   -2.2343   -0.4473    0.0000 C   0  0  0  0  0  0  0  0  0  0  0  0
    8.8607   -1.5179    0.0000 C   0  0  0  0  0  0  0  0  0  0  0  0
    8.8607   -2.2919    0.0000 C   0  0  0  0  0  0  0  0  0  0  0  0
   -3.7277   -1.2215    0.0000 O   0  0  0  0  0  0  0  0  0  0  0  0
   11.1171   -1.1720    0.0000 O   0  0  0  0  0  0  0  0  0  0  0  0
   -6.6099   -1.1446    0.0000 C   0  0  0  0  0  0  0  0  0  0  0  0
   -2.2343   -1.2215    0.0000 C   0  0  0  0  0  0  0  0  0  0  0  0
   12.6159   -1.1720    0.0000 C   0  0  0  0  0  0  0  0  0  0  0  0
    5.1111   -0.3761    0.0000 C   0  0  0  0  0  0  0  0  0  0  0  0
   -9.5963   -0.3979    0.0000 C   0  0  0  0  0  0  0  0  0  0  0  0
   -6.6099   -2.6873    0.0000 C   0  0  0  0  0  0  0  0  0  0  0  0
  -11.1171    1.9132    0.0000 O   0  0  0  0  0  0  0  0  0  0  0  0
    3.6124    1.9132    0.0000 O   0  0  0  0  0  0  0  0  0  0  0  0
   -5.8742   -1.5179    0.0000 C   0  0  0  0  0  0  0  0  0  0  0  0
  -10.3595   -2.2919    0.0000 C   0  0  0  0  0  0  0  0  0  0  0  0
    4.3754   -2.2919    0.0000 C   0  0  0  0  0  0  0  0  0  0  0  0
   11.8582   -1.5399    0.0000 C   0  0  0  0  0  0  0  0  0  0  0  0
   -2.9919   -1.5948    0.0000 C   0  0  0  0  0  0  0  0  0  0  0  0
   -5.8742   -2.3140    0.0000 C   0  0  0  0  0  0  0  0  0  0  0  0
  -10.3595   -0.0027    0.0000 C   0  0  0  0  0  0  0  0  0  0  0  0
    4.3754   -0.0027    0.0000 C   0  0  0  0  0  0  0  0  0  0  0  0
    2.8822    2.2866    0.0000 C   0  0  0  0  0  0  0  0  0  0  0  0
  -11.8582    2.2866    0.0000 C   0  0  0  0  0  0  0  0  0  0  0  0
   -4.4907   -0.0796    0.0000 O   0  0  0  0  0  0  0  0  0  0  0  0
   10.3595   -0.0027    0.0000 O   0  0  0  0  0  0  0  0  0  0  0  0
  -12.6159    1.9132    0.0000 C   0  0  0  0  0  0  0  0  0  0  0  0
    2.1190    1.9132    0.0000 C   0  0  0  0  0  0  0  0  0  0  0  0
  -11.1171    1.1446    0.0000 C   0  0  0  0  0  0  0  0  0  0  0  0
    3.6124    1.1446    0.0000 C   0  0  0  0  0  0  0  0  0  0  0  0
  -11.1171   -2.6598    0.0000 O   0  0  0  0  0  0  0  0  0  0  0  0
    3.6124   -2.6598    0.0000 O   0  0  0  0  0  0  0  0  0  0  0  0
    5.1111   -2.6598    0.0000 C   0  0  0  0  0  0  0  0  0  0  0  0
   -9.6239   -2.6598    0.0000 C   0  0  0  0  0  0  0  0  0  0  0  0
    9.6239   -0.3979    0.0000 C   0  0  0  0  0  0  0  0  0  0  0  0
   -5.2209   -0.4473    0.0000 C   0  0  0  0  0  0  0  0  0  0  0  0
    4.3754    0.7658    0.0000 O   0  0  0  0  0  0  0  0  0  0  0  0
  -10.3595    0.7384    0.0000 O   0  0  0  0  0  0  0  0  0  0  0  0
    8.1305   -0.3979    0.0000 C   0  0  0  0  0  0  0  0  0  0  0  0
    9.6239   -1.1446    0.0000 C   0  0  0  0  0  0  0  0  0  0  0  0
   -6.6099   -0.4473    0.0000 C   0  0  0  0  0  0  0  0  0  0  0  0
    2.1190    1.1446    0.0000 C   0  0  0  0  0  0  0  0  0  0  0  0
  -12.6159    1.1446    0.0000 C   0  0  0  0  0  0  0  0  0  0  0  0
   -5.2209   -1.1446    0.0000 C   0  0  0  0  0  0  0  0  0  0  0  0
  -10.3320   -1.5673    0.0000 O   0  0  0  0  0  0  0  0  0  0  0  0
    4.3754   -1.5179    0.0000 O   0  0  0  0  0  0  0  0  0  0  0  0
    1.3560    2.2866    0.0000 N   0  0  0  0  0  0  0  0  0  0  0  0
  -13.3789    2.2866    0.0000 N   0  0  0  0  0  0  0  0  0  0  0  0
  -10.3595   -3.0606    0.0000 O   0  0  0  0  0  0  0  0  0  0  0  0
    4.3754   -3.0606    0.0000 O   0  0  0  0  0  0  0  0  0  0  0  0
   11.8582    0.7384    0.0000 O   0  0  0  0  0  0  0  0  0  0  0  0
   -2.9919    0.6999    0.0000 O   0  0  0  0  0  0  0  0  0  0  0  0
  -11.8582    0.7384    0.0000 C   0  0  0  0  0  0  0  0  0  0  0  0
    2.8822    0.7658    0.0000 C   0  0  0  0  0  0  0  0  0  0  0  0
   13.3789   -0.0027    0.0000 O   0  0  0  0  0  0  0  0  0  0  0  0
   -1.4658   -0.0796    0.0000 O   0  0  0  0  0  0  0  0  0  0  0  0
   -1.4658   -1.5948    0.0000 O   0  0  0  0  0  0  0  0  0  0  0  0
   13.3515   -1.5399    0.0000 O   0  0  0  0  0  0  0  0  0  0  0  0
    2.8822   -2.2919    0.0000 C   0  0  0  0  0  0  0  0  0  0  0  0
  -11.8582   -2.2919    0.0000 C   0  0  0  0  0  0  0  0  0  0  0  0
    9.6239   -2.6598    0.0000 C   0  0  0  0  0  0  0  0  0  0  0  0
   -8.8552   -0.0027    0.0000 C   0  0  0  0  0  0  0  0  0  0  0  0
    5.8742   -0.0027    0.0000 C   0  0  0  0  0  0  0  0  0  0  0  0
    3.6124   -0.3979    0.0000 C   0  0  0  0  0  0  0  0  0  0  0  0
  -11.1171   -0.3979    0.0000 C   0  0  0  0  0  0  0  0  0  0  0  0
   -2.9919   -2.3578    0.0000 C   0  0  0  0  0  0  0  0  0  0  0  0
   11.8582   -2.3140    0.0000 C   0  0  0  0  0  0  0  0  0  0  0  0
    2.8822    3.0606    0.0000 C   0  0  0  0  0  0  0  0  0  0  0  0
  -11.8582    3.0606    0.0000 C   0  0  0  0  0  0  0  0  0  0  0  0
  -11.1171   -1.1446    0.0000 C   0  0  0  0  0  0  0  0  0  0  0  0
    3.6124   -1.1446    0.0000 C   0  0  0  0  0  0  0  0  0  0  0  0
  -14.1146    1.8913    0.0000 C   0  0  0  0  0  0  0  0  0  0  0  0
  -13.3789    3.0606    0.0000 C   0  0  0  0  0  0  0  0  0  0  0  0
    0.5928    1.9132    0.0000 C   0  0  0  0  0  0  0  0  0  0  0  0
    1.3560    3.0606    0.0000 C   0  0  0  0  0  0  0  0  0  0  0  0
  -11.8582   -1.5179    0.0000 C   0  0  0  0  0  0  0  0  0  0  0  0
    2.8822   -1.5179    0.0000 C   0  0  0  0  0  0  0  0  0  0  0  0
   -2.2343    1.0678    0.0000 C   0  0  0  0  0  0  0  0  0  0  0  0
   12.6159    1.1446    0.0000 C   0  0  0  0  0  0  0  0  0  0  0  0
   -0.7355   -0.4473    0.0000 C   0  0  0  0  0  0  0  0  0  0  0  0
   14.1146   -0.3979    0.0000 C   0  0  0  0  0  0  0  0  0  0  0  0
   -1.4658   -2.3578    0.0000 C   0  0  0  0  0  0  0  0  0  0  0  0
   13.3515   -2.3140    0.0000 C   0  0  0  0  0  0  0  0  0  0  0  0
    2.1190   -2.6598    0.0000 C   0  0  0  0  0  0  0  0  0  0  0  0
  -12.6159   -2.6598    0.0000 C   0  0  0  0  0  0  0  0  0  0  0  0
    1.3560   -2.2919    0.0000 C   0  0  0  0  0  0  0  0  0  0  0  0
  -13.3789   -2.2646    0.0000 C   0  0  0  0  0  0  0  0  0  0  0  0
    0.0000    0.0000    0.0000 H   0  0  0  0  0  0  0  0  0  0  0  0
    0.0000    0.0000    0.0000 H   0  0  0  0  0  0  0  0  0  0  0  0
    0.0000    0.0000    0.0000 H   0  0  0  0  0  0  0  0  0  0  0  0
    0.0000    0.0000    0.0000 H   0  0  0  0  0  0  0  0  0  0  0  0
    0.0000    0.0000    0.0000 H   0  0  0  0  0  0  0  0  0  0  0  0
    0.0000    0.0000    0.0000 H   0  0  0  0  0  0  0  0  0  0  0  0
    0.0000    0.0000    0.0000 H   0  0  0  0  0  0  0  0  0  0  0  0
    0.0000    0.0000    0.0000 H   0  0  0  0  0  0  0  0  0  0  0  0
    0.0000    0.0000    0.0000 H   0  0  0  0  0  0  0  0  0  0  0  0
    0.0000    0.0000    0.0000 H   0  0  0  0  0  0  0  0  0  0  0  0
    0.0000    0.0000    0.0000 H   0  0  0  0  0  0  0  0  0  0  0  0
    0.0000    0.0000    0.0000 H   0  0  0  0  0  0  0  0  0  0  0  0
    0.0000    0.0000    0.0000 H   0  0  0  0  0  0  0  0  0  0  0  0
    0.0000    0.0000    0.0000 H   0  0  0  0  0  0  0  0  0  0  0  0
    0.0000    0.0000    0.0000 H   0  0  0  0  0  0  0  0  0  0  0  0
    0.0000    0.0000    0.0000 H   0  0  0  0  0  0  0  0  0  0  0  0
    0.0000    0.0000    0.0000 H   0  0  0  0  0  0  0  0  0  0  0  0
    0.0000    0.0000    0.0000 H   0  0  0  0  0  0  0  0  0  0  0  0
    0.0000    0.0000    0.0000 H   0  0  0  0  0  0  0  0  0  0  0  0
    0.0000    0.0000    0.0000 H   0  0  0  0  0  0  0  0  0  0  0  0
    0.0000    0.0000    0.0000 H   0  0  0  0  0  0  0  0  0  0  0  0
    0.0000    0.0000    0.0000 H   0  0  0  0  0  0  0  0  0  0  0  0
    0.0000    0.0000    0.0000 H   0  0  0  0  0  0  0  0  0  0  0  0
    0.0000    0.0000    0.0000 H   0  0  0  0  0  0  0  0  0  0  0  0
    0.0000    0.0000    0.0000 H   0  0  0  0  0  0  0  0  0  0  0  0
    0.0000    0.0000    0.0000 H   0  0  0  0  0  0  0  0  0  0  0  0
    0.0000    0.0000    0.0000 H   0  0  0  0  0  0  0  0  0  0  0  0
    0.0000    0.0000    0.0000 H   0  0  0  0  0  0  0  0  0  0  0  0
    0.0000    0.0000    0.0000 H   0  0  0  0  0  0  0  0  0  0  0  0
    0.0000    0.0000    0.0000 H   0  0  0  0  0  0  0  0  0  0  0  0
    0.0000    0.0000    0.0000 H   0  0  0  0  0  0  0  0  0  0  0  0
    0.0000    0.0000    0.0000 H   0  0  0  0  0  0  0  0  0  0  0  0
    0.0000    0.0000    0.0000 H   0  0  0  0  0  0  0  0  0  0  0  0
    0.0000    0.0000    0.0000 H   0  0  0  0  0  0  0  0  0  0  0  0
    0.0000    0.0000    0.0000 H   0  0  0  0  0  0  0  0  0  0  0  0
    0.0000    0.0000    0.0000 H   0  0  0  0  0  0  0  0  0  0  0  0
    0.0000    0.0000    0.0000 H   0  0  0  0  0  0  0  0  0  0  0  0
    0.0000    0.0000    0.0000 H   0  0  0  0  0  0  0  0  0  0  0  0
    0.0000    0.0000    0.0000 H   0  0  0  0  0  0  0  0  0  0  0  0
    0.0000    0.0000    0.0000 H   0  0  0  0  0  0  0  0  0  0  0  0
    0.0000    0.0000    0.0000 H   0  0  0  0  0  0  0  0  0  0  0  0
    0.0000    0.0000    0.0000 H   0  0  0  0  0  0  0  0  0  0  0  0
    0.0000    0.0000    0.0000 H   0  0  0  0  0  0  0  0  0  0  0  0
    0.0000    0.0000    0.0000 H   0  0  0  0  0  0  0  0  0  0  0  0
    0.0000    0.0000    0.0000 H   0  0  0  0  0  0  0  0  0  0  0  0
    0.0000    0.0000    0.0000 H   0  0  0  0  0  0  0  0  0  0  0  0
    0.0000    0.0000    0.0000 H   0  0  0  0  0  0  0  0  0  0  0  0
    0.0000    0.0000    0.0000 H   0  0  0  0  0  0  0  0  0  0  0  0
    0.0000    0.0000    0.0000 H   0  0  0  0  0  0  0  0  0  0  0  0
    0.0000    0.0000    0.0000 H   0  0  0  0  0  0  0  0  0  0  0  0
    0.0000    0.0000    0.0000 H   0  0  0  0  0  0  0  0  0  0  0  0
    0.0000    0.0000    0.0000 H   0  0  0  0  0  0  0  0  0  0  0  0
    0.0000    0.0000    0.0000 H   0  0  0  0  0  0  0  0  0  0  0  0
    0.0000    0.0000    0.0000 H   0  0  0  0  0  0  0  0  0  0  0  0
    0.0000    0.0000    0.0000 H   0  0  0  0  0  0  0  0  0  0  0  0
    0.0000    0.0000    0.0000 H   0  0  0  0  0  0  0  0  0  0  0  0
    0.0000    0.0000    0.0000 H   0  0  0  0  0  0  0  0  0  0  0  0
    0.0000    0.0000    0.0000 H   0  0  0  0  0  0  0  0  0  0  0  0
    0.0000    0.0000    0.0000 H   0  0  0  0  0  0  0  0  0  0  0  0
    0.0000    0.0000    0.0000 H   0  0  0  0  0  0  0  0  0  0  0  0
    0.0000    0.0000    0.0000 H   0  0  0  0  0  0  0  0  0  0  0  0
    0.0000    0.0000    0.0000 H   0  0  0  0  0  0  0  0  0  0  0  0
    0.0000    0.0000    0.0000 H   0  0  0  0  0  0  0  0  0  0  0  0
    0.0000    0.0000    0.0000 H   0  0  0  0  0  0  0  0  0  0  0  0
    0.0000    0.0000    0.0000 H   0  0  0  0  0  0  0  0  0  0  0  0
    0.0000    0.0000    0.0000 H   0  0  0  0  0  0  0  0  0  0  0  0
    0.0000    0.0000    0.0000 H   0  0  0  0  0  0  0  0  0  0  0  0
    0.0000    0.0000    0.0000 H   0  0  0  0  0  0  0  0  0  0  0  0
    0.0000    0.0000    0.0000 H   0  0  0  0  0  0  0  0  0  0  0  0
    0.0000    0.0000    0.0000 H   0  0  0  0  0  0  0  0  0  0  0  0
    0.0000    0.0000    0.0000 H   0  0  0  0  0  0  0  0  0  0  0  0
    0.0000    0.0000    0.0000 H   0  0  0  0  0  0  0  0  0  0  0  0
    0.0000    0.0000    0.0000 H   0  0  0  0  0  0  0  0  0  0  0  0
    0.0000    0.0000    0.0000 H   0  0  0  0  0  0  0  0  0  0  0  0
    0.0000    0.0000    0.0000 H   0  0  0  0  0  0  0  0  0  0  0  0
    0.0000    0.0000    0.0000 H   0  0  0  0  0  0  0  0  0  0  0  0
    0.0000    0.0000    0.0000 H   0  0  0  0  0  0  0  0  0  0  0  0
    0.0000    0.0000    0.0000 H   0  0  0  0  0  0  0  0  0  0  0  0
    0.0000    0.0000    0.0000 H   0  0  0  0  0  0  0  0  0  0  0  0
    0.0000    0.0000    0.0000 H   0  0  0  0  0  0  0  0  0  0  0  0
    0.0000    0.0000    0.0000 H   0  0  0  0  0  0  0  0  0  0  0  0
    0.0000    0.0000    0.0000 H   0  0  0  0  0  0  0  0  0  0  0  0
    0.0000    0.0000    0.0000 H   0  0  0  0  0  0  0  0  0  0  0  0
    0.0000    0.0000    0.0000 H   0  0  0  0  0  0  0  0  0  0  0  0
    0.0000    0.0000    0.0000 H   0  0  0  0  0  0  0  0  0  0  0  0
    0.0000    0.0000    0.0000 H   0  0  0  0  0  0  0  0  0  0  0  0
    0.0000    0.0000    0.0000 H   0  0  0  0  0  0  0  0  0  0  0  0
    0.0000    0.0000    0.0000 H   0  0  0  0  0  0  0  0  0  0  0  0
    0.0000    0.0000    0.0000 H   0  0  0  0  0  0  0  0  0  0  0  0
    0.0000    0.0000    0.0000 H   0  0  0  0  0  0  0  0  0  0  0  0
    0.0000    0.0000    0.0000 H   0  0  0  0  0  0  0  0  0  0  0  0
    0.0000    0.0000    0.0000 H   0  0  0  0  0  0  0  0  0  0  0  0
    0.0000    0.0000    0.0000 H   0  0  0  0  0  0  0  0  0  0  0  0
    0.0000    0.0000    0.0000 H   0  0  0  0  0  0  0  0  0  0  0  0
    0.0000    0.0000    0.0000 H   0  0  0  0  0  0  0  0  0  0  0  0
    0.0000    0.0000    0.0000 H   0  0  0  0  0  0  0  0  0  0  0  0
    0.0000    0.0000    0.0000 H   0  0  0  0  0  0  0  0  0  0  0  0
    0.0000    0.0000    0.0000 H   0  0  0  0  0  0  0  0  0  0  0  0
    0.0000    0.0000    0.0000 H   0  0  0  0  0  0  0  0  0  0  0  0
    0.0000    0.0000    0.0000 H   0  0  0  0  0  0  0  0  0  0  0  0
    0.0000    0.0000    0.0000 H   0  0  0  0  0  0  0  0  0  0  0  0
    0.0000    0.0000    0.0000 H   0  0  0  0  0  0  0  0  0  0  0  0
    0.0000    0.0000    0.0000 H   0  0  0  0  0  0  0  0  0  0  0  0
    0.0000    0.0000    0.0000 H   0  0  0  0  0  0  0  0  0  0  0  0
    0.0000    0.0000    0.0000 H   0  0  0  0  0  0  0  0  0  0  0  0
    0.0000    0.0000    0.0000 H   0  0  0  0  0  0  0  0  0  0  0  0
    0.0000    0.0000    0.0000 H   0  0  0  0  0  0  0  0  0  0  0  0
    0.0000    0.0000    0.0000 H   0  0  0  0  0  0  0  0  0  0  0  0
    0.0000    0.0000    0.0000 H   0  0  0  0  0  0  0  0  0  0  0  0
    0.0000    0.0000    0.0000 H   0  0  0  0  0  0  0  0  0  0  0  0
    0.0000    0.0000    0.0000 H   0  0  0  0  0  0  0  0  0  0  0  0
    0.0000    0.0000    0.0000 H   0  0  0  0  0  0  0  0  0  0  0  0
    0.0000    0.0000    0.0000 H   0  0  0  0  0  0  0  0  0  0  0  0
    0.0000    0.0000    0.0000 H   0  0  0  0  0  0  0  0  0  0  0  0
    0.0000    0.0000    0.0000 H   0  0  0  0  0  0  0  0  0  0  0  0
    0.0000    0.0000    0.0000 H   0  0  0  0  0  0  0  0  0  0  0  0
    0.0000    0.0000    0.0000 H   0  0  0  0  0  0  0  0  0  0  0  0
    0.0000    0.0000    0.0000 H   0  0  0  0  0  0  0  0  0  0  0  0
    0.0000    0.0000    0.0000 H   0  0  0  0  0  0  0  0  0  0  0  0
    0.0000    0.0000    0.0000 H   0  0  0  0  0  0  0  0  0  0  0  0
    0.0000    0.0000    0.0000 H   0  0  0  0  0  0  0  0  0  0  0  0
    0.0000    0.0000    0.0000 H   0  0  0  0  0  0  0  0  0  0  0  0
    0.0000    0.0000    0.0000 H   0  0  0  0  0  0  0  0  0  0  0  0
    0.0000    0.0000    0.0000 H   0  0  0  0  0  0  0  0  0  0  0  0
    0.0000    0.0000    0.0000 H   0  0  0  0  0  0  0  0  0  0  0  0
    0.0000    0.0000    0.0000 H   0  0  0  0  0  0  0  0  0  0  0  0
    0.0000    0.0000    0.0000 H   0  0  0  0  0  0  0  0  0  0  0  0
    0.0000    0.0000    0.0000 H   0  0  0  0  0  0  0  0  0  0  0  0
    0.0000    0.0000    0.0000 H   0  0  0  0  0  0  0  0  0  0  0  0
    0.0000    0.0000    0.0000 H   0  0  0  0  0  0  0  0  0  0  0  0
    0.0000    0.0000    0.0000 H   0  0  0  0  0  0  0  0  0  0  0  0
    0.0000    0.0000    0.0000 H   0  0  0  0  0  0  0  0  0  0  0  0
  3  5  1  0
  4  8  1  0
  5  1  1  0
  6 11  1  0
  7  2  1  0
  8  1  2  0
  9  1  1  0
 10  2  1  0
 11  2  2  0
 12 43  1  6
 13 44  1  1
 14  4  1  0
 15 12  1  0
 16 13  1  0
 17  7  1  0
 18  3  1  0
 19 16  1  0
 20 15  1  0
 21 14  1  0
 22 18  2  0
 23 12  1  0
 24 13  1  0
 25  6  1  0
 26 20  1  0
 27 19  1  0
 28  9  1  0
 29 10  1  0
 30 17  1  0
 31 47  1  0
 32 48  1  0
 33 25  1  0
 34 52  1  0
 35 51  1  0
 36 24  1  0
 37 23  1  0
 38 30  2  0
 39 29  1  0
 40 28  1  0
 41 32  1  0
 42 31  1  0
 54 43  1  6
 53 44  1  6
 45 42  1  0
 46 60  1  0
 47 56  1  1
 48 55  1  6
 49 34  1  0
 50 35  1  0
 51  5  1  0
 52  7  1  0
 53 57  1  0
 54 59  1  0
 40 55  1  6
 39 56  1  6
 57 14  1  0
 58 21  1  0
 59 25  1  0
 60 72  1  0
 61 71  1  0
 62 33  1  0
 63 10  2  0
 64  9  2  0
 46 65  1  6
 45 66  1  1
 67 34  2  0
 68 35  2  0
 16 69  1  6
 15 70  1  6
 71 47  1  0
 72 48  1  0
 19 73  1  1
 20 74  1  6
 26 75  1  1
 27 76  1  6
 77 50  1  0
 78 49  1  0
 79 22  1  0
 29 80  1  1
 28 81  1  6
 82 40  1  0
 83 39  1  0
 37 84  1  1
 36 85  1  6
 41 86  1  6
 42 87  1  1
 88 83  1  0
 89 82  1  0
 90 66  1  0
 91 66  1  0
 92 65  1  0
 93 65  1  0
 94 78  1  0
 95 77  1  0
 96 70  1  0
 97 69  1  0
 98 74  1  0
 99 73  1  0
100 75  1  0
101 76  1  0
 77102  1  1
 78103  1  6
104102  1  0
105103  1  0
  4  3  1  0
 22 21  1  0
 53 58  1  0
 89 95  1  0
 46 41  1  0
 36 27  1  0
  6 17  1  0
 33 38  1  0
 62 54  1  0
 88 94  1  0
 45 61  1  0
 37 26  1  0
  3106  1  6
  4107  1  6
  5108  1  1
  6109  1  6
  7110  1  1
  8111  1  0
 11112  1  0
 12113  1  0
 13114  1  0
 14115  1  1
 15116  1  0
 16117  1  0
 17118  1  6
 18119  1  0
 19120  1  0
 20121  1  0
 21122  1  6
 25123  1  1
 26124  1  0
 27125  1  0
 28126  1  0
 29127  1  0
 30128  1  0
 33129  1  6
 36130  1  0
 37131  1  0
 38132  1  0
 39133  1  0
 40134  1  0
 41135  1  0
 42136  1  0
 45137  1  0
 46138  1  0
 47139  1  0
 48140  1  0
 51141  1  0
 51142  1  0
 52143  1  0
 52144  1  0
 53145  1  0
 54146  1  0
 57147  1  0
 57148  1  0
 58149  1  0
 58150  1  0
 59151  1  0
 59152  1  0
 60153  1  0
 60154  1  0
 61155  1  0
 61156  1  0
 62157  1  0
 62158  1  0
 71159  1  0
 71160  1  0
 72161  1  0
 72162  1  0
 77163  1  0
 78164  1  0
 79165  1  0
 79166  1  0
 79167  1  0
 80168  1  0
 80169  1  0
 80170  1  0
 81171  1  0
 81172  1  0
 81173  1  0
 82174  1  0
 82175  1  0
 83176  1  0
 83177  1  0
 84178  1  0
 84179  1  0
 84180  1  0
 85181  1  0
 85182  1  0
 85183  1  0
 86184  1  0
 86185  1  0
 86186  1  0
 87187  1  0
 87188  1  0
 87189  1  0
 88190  1  0
 88191  1  0
 89192  1  0
 89193  1  0
 90194  1  0
 90195  1  0
 90196  1  0
 91197  1  0
 91198  1  0
 91199  1  0
 92200  1  0
 92201  1  0
 92202  1  0
 93203  1  0
 93204  1  0
 93205  1  0
 94206  1  0
 94207  1  0
 95208  1  0
 95209  1  0
 96210  1  0
 96211  1  0
 96212  1  0
 97213  1  0
 97214  1  0
 97215  1  0
 98216  1  0
 98217  1  0
 98218  1  0
 99219  1  0
 99220  1  0
 99221  1  0
100222  1  0
100223  1  0
100224  1  0
101225  1  0
101226  1  0
101227  1  0
102228  1  0
102229  1  0
103230  1  0
103231  1  0
104232  1  0
104233  1  0
104234  1  0
105235  1  0
105236  1  0
105237  1  0
M  END
>  <ALOGPS_LOGP>  (1) 
4.25

>  <ALOGPS_LOGS>  (1) 
-5.49

>  <ALOGPS_SOLUBILITY>  (1) 
2.40e-03 g/l

>  <DATABASE_ID>  (1) 
DB08823

>  <DATABASE_NAME>  (1) 
drugbank

>  <DRUGBANK_ID>  (1) 
DB08823

>  <DRUG_GROUPS>  (1) 
approved; investigational; vet_approved

>  <EXACT_MASS>  (1) 
1476.937344658

>  <FORMULA>  (1) 
C83H132N2O20

>  <GENERIC_NAME>  (1) 
Spinosad

>  <INCHI_IDENTIFIER>  (1) 
InChI=1S/C42H67NO10.C41H65NO10/c1-11-26-13-12-14-35(53-37-16-15-34(43(6)7)24(4)49-37)23(3)38(45)33-20-31-29(32(33)21-36(44)51-26)17-22(2)28-18-27(19-30(28)31)52-42-41(48-10)40(47-9)39(46-8)25(5)50-42;1-10-26-12-11-13-34(52-36-17-16-33(42(5)6)23(3)48-36)22(2)37(44)32-20-30-28(31(32)21-35(43)50-26)15-14-25-18-27(19-29(25)30)51-41-40(47-9)39(46-8)38(45-7)24(4)49-41/h17,20,23-32,34-35,37,39-42H,11-16,18-19,21H2,1-10H3;14-15,20,22-31,33-34,36,38-41H,10-13,16-19,21H2,1-9H3/t23-,24-,25+,26+,27-,28+,29-,30-,31-,32+,34+,35+,37+,39+,40-,41-,42+;22-,23-,24+,25-,26+,27-,28-,29-,30-,31+,33+,34+,36+,38+,39-,40-,41+/m11/s1

>  <INCHI_KEY>  (1) 
JFLRKDZMHNBDQS-SGSTVUCESA-N

>  <INTERNATIONAL_BRANDS>  (1) 
Success 

>  <JCHEM_ACCEPTOR_COUNT>  (1) 
10

>  <JCHEM_ATOM_COUNT>  (1) 
237

>  <JCHEM_AVERAGE_POLARIZABILITY>  (1) 
86.43615183821301

>  <JCHEM_BIOAVAILABILITY>  (1) 
0

>  <JCHEM_DONOR_COUNT>  (1) 
0

>  <JCHEM_FORMAL_CHARGE>  (1) 
0

>  <JCHEM_GHOSE_FILTER>  (1) 
0

>  <JCHEM_IUPAC>  (1) 
(2R,3aS,5aR,5bS,9S,13S,14R,16aS,16bR)-13-{[(2R,5S,6R)-5-(dimethylamino)-6-methyloxan-2-yl]oxy}-9-ethyl-14-methyl-2-{[(2R,3R,4R,5S,6S)-3,4,5-trimethoxy-6-methyloxan-2-yl]oxy}-1H,2H,3H,3aH,5aH,5bH,6H,7H,9H,10H,11H,12H,13H,14H,15H,16aH,16bH-as-indaceno[3,2-d]oxacyclododecane-7,15-dione; (2S,3aR,5aS,5bS,9S,13S,14R,16aS,16bS)-13-{[(2R,5S,6R)-5-(dimethylamino)-6-methyloxan-2-yl]oxy}-9-ethyl-4,14-dimethyl-2-{[(2R,3R,4R,5S,6S)-3,4,5-trimethoxy-6-methyloxan-2-yl]oxy}-1H,2H,3H,3aH,5aH,5bH,6H,7H,9H,10H,11H,12H,13H,14H,15H,16aH,16bH-as-indaceno[3,2-d]oxacyclododecane-7,15-dione

>  <JCHEM_LOGP>  (1) 
5.843439882333334

>  <JCHEM_MDDR_LIKE_RULE>  (1) 
1

>  <JCHEM_NUMBER_OF_RINGS>  (1) 
12

>  <JCHEM_PHYSIOLOGICAL_CHARGE>  (1) 
1

>  <JCHEM_PKA_STRONGEST_ACIDIC>  (1) 
19.448197095479344

>  <JCHEM_PKA_STRONGEST_BASIC>  (1) 
8.561483449594133

>  <JCHEM_POLAR_SURFACE_AREA>  (1) 
111.22000000000001

>  <JCHEM_REFRACTIVITY>  (1) 
201.86319999999995

>  <JCHEM_ROTATABLE_BOND_COUNT>  (1) 
18

>  <JCHEM_RULE_OF_FIVE>  (1) 
0

>  <JCHEM_TRADITIONAL_IUPAC>  (1) 
spinosyn D; spinosyn-A

>  <JCHEM_VEBER_RULE>  (1) 
0

>  <MOLECULAR_WEIGHT>  (1) 
1477.963

>  <PRODUCTS>  (1) 
Natroba; Spinosad

>  <SMILES>  (1) 
[H][C@@]12C[C@H](C[C@@]1([H])[C@]1([H])C=C3C(=O)[C@H](C)[C@H](CCC[C@H](CC)OC(=O)C[C@@]3([H])[C@]1([H])C=C2)O[C@@]1([H])CC[C@@H]([C@@H](C)O1)N(C)C)O[C@]1([H])O[C@@H](C)[C@H](OC)[C@@H](OC)[C@H]1OC.[H][C@@]12C[C@H](C[C@@]1([H])[C@]1([H])C=C3C(=O)[C@H](C)[C@H](CCC[C@H](CC)OC(=O)C[C@@]3([H])[C@]1([H])C=C2C)O[C@@]1([H])CC[C@@H]([C@@H](C)O1)N(C)C)O[C@]1([H])O[C@@H](C)[C@H](OC)[C@@H](OC)[C@H]1OC

>  <SYNONYMS>  (1) 
1H-as-Indaceno[3,2-d]oxacyclododecin-7,15-dione, 2-[(6-deoxy-2,3,4-tri-O-methyl-alpha-L-mannopyranosyl)oxy]-13-[[2R,5S,6R)-5-(dimethylamino) tetrahydro-6-methyl-2H-pyran-2-yl]oxy]-9-ethyl-2,3,3a,5a,5b,6,9,10,11,12,13,14,16a,16b-tetradecahydro-4,14-dimetyl-,(2S,3aSR,5aS,5bS,9S,13S,14R,16aS,16bS)-; 1H-as-Indaceno[3,2-d]oxacyclododecin-7,a5-dione, 2-[(6-deoxy-2,3,4-tri-O-methyl-alpha-L-mannopyranosyl)oxy]-13-[[2R,5S,6R)-5-(dimethylamino) tetrahydro-6-methyl-2H-pyran-2-yl]oxy]-9-ethyl-2,3,3a,5a,5b,6,9,10,11,12,13,14,16a,16b-tetradecahydro-14-metyl-, (2R,3aS,5aR,5bS,9S,13S,14R,16aS,16bR)-; NAF-144; XDE-105

$$$$
