 
     RDKit          2D

 87 92  0  0  0  0  0  0  0  0999 V2000
    8.4567  -20.5850    0.0000 C   0  0  0  0  0  0  0  0  0  0  0  0
    8.7043  -21.3687    0.0000 C   0  0  0  0  0  0  0  0  0  0  0  0
    9.5293  -21.3687    0.0000 C   0  0  0  0  0  0  0  0  0  0  0  0
    9.7768  -20.5850    0.0000 C   0  0  0  0  0  0  0  0  0  0  0  0
    9.1168  -20.0899    0.0000 C   0  0  0  0  0  0  0  0  0  0  0  0
   10.0656  -21.9875    0.0000 C   0  0  0  0  0  0  0  0  0  0  0  0
   10.8906  -21.8225    0.0000 C   0  0  0  0  0  0  0  0  0  0  0  0
   11.1381  -21.0387    0.0000 C   0  0  0  0  0  0  0  0  0  0  0  0
   10.6019  -20.4199    0.0000 C   0  0  0  0  0  0  0  0  0  0  0  0
    7.6317  -20.3787    0.0000 C   0  0  0  0  0  0  0  0  0  0  0  0
    7.0954  -20.9975    0.0000 C   0  0  0  0  0  0  0  0  0  0  0  0
    7.3429  -21.7813    0.0000 C   0  0  0  0  0  0  0  0  0  0  0  0
    8.1267  -21.9875    0.0000 C   0  0  0  0  0  0  0  0  0  0  0  0
    8.4155  -19.6774    0.0000 C   0  0  0  0  0  0  0  0  0  0  0  0
    7.7142  -20.0899    0.0000 N   0  0  0  0  0  0  0  0  0  0  0  0
    8.4155  -18.8524    0.0000 O   0  0  0  0  0  0  0  0  0  0  0  0
    7.0129  -19.6774    0.0000 C   0  0  0  0  0  0  0  0  0  0  0  0
    6.3116  -20.0899    0.0000 C   0  0  0  0  0  0  0  0  0  0  0  0
    5.6103  -19.6774    0.0000 F   0  0  0  0  0  0  0  0  0  0  0  0
    6.3116  -20.9150    0.0000 F   0  0  0  0  0  0  0  0  0  0  0  0
    5.6103  -20.5024    0.0000 F   0  0  0  0  0  0  0  0  0  0  0  0
    9.8181  -19.6774    0.0000 C   0  0  0  0  0  0  0  0  0  0  0  0
   10.5194  -20.0899    0.0000 C   0  0  0  0  0  0  0  0  0  0  0  0
   11.2207  -19.6774    0.0000 C   0  0  0  0  0  0  0  0  0  0  0  0
   11.9219  -20.0899    0.0000 C   0  0  0  0  0  0  0  0  0  0  0  0
   12.6232  -19.6774    0.0000 N   0  0  0  0  0  0  0  0  0  0  0  0
   13.3411  -20.0841    0.0000 C   0  0  0  0  0  0  0  0  0  0  0  0
   14.0522  -19.6658    0.0000 C   0  0  0  0  0  0  0  0  0  0  0  0
   14.0868  -18.8407    0.0000 C   0  0  0  0  0  0  0  0  0  0  0  0
   13.3277  -18.4341    0.0000 C   0  0  0  0  0  0  0  0  0  0  0  0
   12.6165  -18.8524    0.0000 C   0  0  0  0  0  0  0  0  0  0  0  0
   14.7835  -18.4432    0.0000 N   0  0  0  0  0  0  0  0  0  0  0  0
   15.4831  -18.8519    0.0000 C   0  0  0  0  0  0  0  0  0  0  0  0
   16.1893  -18.4490    0.0000 C   0  0  0  0  0  0  0  0  0  0  0  0
   15.4789  -19.6773    0.0000 O   0  0  0  0  0  0  0  0  0  0  0  0
   16.8841  -18.8548    0.0000 C   0  0  0  0  0  0  0  0  0  0  0  0
   17.6006  -18.4459    0.0000 C   0  0  0  0  0  0  0  0  0  0  0  0
   17.6049  -17.6208    0.0000 C   0  0  0  0  0  0  0  0  0  0  0  0
   16.9102  -17.2150    0.0000 C   0  0  0  0  0  0  0  0  0  0  0  0
   16.1523  -17.6239    0.0000 C   0  0  0  0  0  0  0  0  0  0  0  0
   16.8798  -19.6773    0.0000 C   0  0  0  0  0  0  0  0  0  0  0  0
   16.1575  -20.0895    0.0000 C   0  0  0  0  0  0  0  0  0  0  0  0
   16.1533  -20.9146    0.0000 C   0  0  0  0  0  0  0  0  0  0  0  0
   16.8657  -21.3307    0.0000 C   0  0  0  0  0  0  0  0  0  0  0  0
   17.5880  -20.9186    0.0000 C   0  0  0  0  0  0  0  0  0  0  0  0
   17.5922  -20.0935    0.0000 C   0  0  0  0  0  0  0  0  0  0  0  0
   16.8615  -22.1525    0.0000 C   0  0  0  0  0  0  0  0  0  0  0  0
   16.8573  -22.9775    0.0000 F   0  0  0  0  0  0  0  0  0  0  0  0
   17.6866  -22.1525    0.0000 F   0  0  0  0  0  0  0  0  0  0  0  0
   16.0365  -22.1525    0.0000 F   0  0  0  0  0  0  0  0  0  0  0  0
    0.0000    0.0000    0.0000 H   0  0  0  0  0  0  0  0  0  0  0  0
    0.0000    0.0000    0.0000 H   0  0  0  0  0  0  0  0  0  0  0  0
    0.0000    0.0000    0.0000 H   0  0  0  0  0  0  0  0  0  0  0  0
    0.0000    0.0000    0.0000 H   0  0  0  0  0  0  0  0  0  0  0  0
    0.0000    0.0000    0.0000 H   0  0  0  0  0  0  0  0  0  0  0  0
    0.0000    0.0000    0.0000 H   0  0  0  0  0  0  0  0  0  0  0  0
    0.0000    0.0000    0.0000 H   0  0  0  0  0  0  0  0  0  0  0  0
    0.0000    0.0000    0.0000 H   0  0  0  0  0  0  0  0  0  0  0  0
    0.0000    0.0000    0.0000 H   0  0  0  0  0  0  0  0  0  0  0  0
    0.0000    0.0000    0.0000 H   0  0  0  0  0  0  0  0  0  0  0  0
    0.0000    0.0000    0.0000 H   0  0  0  0  0  0  0  0  0  0  0  0
    0.0000    0.0000    0.0000 H   0  0  0  0  0  0  0  0  0  0  0  0
    0.0000    0.0000    0.0000 H   0  0  0  0  0  0  0  0  0  0  0  0
    0.0000    0.0000    0.0000 H   0  0  0  0  0  0  0  0  0  0  0  0
    0.0000    0.0000    0.0000 H   0  0  0  0  0  0  0  0  0  0  0  0
    0.0000    0.0000    0.0000 H   0  0  0  0  0  0  0  0  0  0  0  0
    0.0000    0.0000    0.0000 H   0  0  0  0  0  0  0  0  0  0  0  0
    0.0000    0.0000    0.0000 H   0  0  0  0  0  0  0  0  0  0  0  0
    0.0000    0.0000    0.0000 H   0  0  0  0  0  0  0  0  0  0  0  0
    0.0000    0.0000    0.0000 H   0  0  0  0  0  0  0  0  0  0  0  0
    0.0000    0.0000    0.0000 H   0  0  0  0  0  0  0  0  0  0  0  0
    0.0000    0.0000    0.0000 H   0  0  0  0  0  0  0  0  0  0  0  0
    0.0000    0.0000    0.0000 H   0  0  0  0  0  0  0  0  0  0  0  0
    0.0000    0.0000    0.0000 H   0  0  0  0  0  0  0  0  0  0  0  0
    0.0000    0.0000    0.0000 H   0  0  0  0  0  0  0  0  0  0  0  0
    0.0000    0.0000    0.0000 H   0  0  0  0  0  0  0  0  0  0  0  0
    0.0000    0.0000    0.0000 H   0  0  0  0  0  0  0  0  0  0  0  0
    0.0000    0.0000    0.0000 H   0  0  0  0  0  0  0  0  0  0  0  0
    0.0000    0.0000    0.0000 H   0  0  0  0  0  0  0  0  0  0  0  0
    0.0000    0.0000    0.0000 H   0  0  0  0  0  0  0  0  0  0  0  0
    0.0000    0.0000    0.0000 H   0  0  0  0  0  0  0  0  0  0  0  0
    0.0000    0.0000    0.0000 H   0  0  0  0  0  0  0  0  0  0  0  0
    0.0000    0.0000    0.0000 H   0  0  0  0  0  0  0  0  0  0  0  0
    0.0000    0.0000    0.0000 H   0  0  0  0  0  0  0  0  0  0  0  0
    0.0000    0.0000    0.0000 H   0  0  0  0  0  0  0  0  0  0  0  0
    0.0000    0.0000    0.0000 H   0  0  0  0  0  0  0  0  0  0  0  0
    0.0000    0.0000    0.0000 H   0  0  0  0  0  0  0  0  0  0  0  0
  1  2  2  0
  2  3  1  0
  3  4  1  0
  4  5  1  0
  1  5  1  0
  3  6  2  0
  6  7  1  0
  7  8  2  0
  8  9  1  0
  4  9  2  0
  1 10  1  0
 10 11  2  0
 11 12  1  0
 12 13  2  0
  2 13  1  0
 14  5  1  0
 14 15  1  0
 14 16  2  0
 15 17  1  0
 17 18  1  0
 18 19  1  0
 18 20  1  0
 18 21  1  0
 22 23  1  0
 22  5  1  0
 23 24  1  0
 24 25  1  0
 25 26  1  0
 26 27  1  0
 27 28  1  0
 28 29  1  0
 29 30  1  0
 30 31  1  0
 26 31  1  0
 29 32  1  0
 32 33  1  0
 33 34  1  0
 33 35  2  0
 34 36  1  0
 36 37  2  0
 37 38  1  0
 38 39  2  0
 39 40  1  0
 34 40  2  0
 36 41  1  0
 41 42  2  0
 42 43  1  0
 43 44  2  0
 44 45  1  0
 45 46  2  0
 41 46  1  0
 44 47  1  0
 47 48  1  0
 47 49  1  0
 47 50  1  0
  6 51  1  0
  7 52  1  0
  8 53  1  0
  9 54  1  0
 10 55  1  0
 11 56  1  0
 12 57  1  0
 13 58  1  0
 15 59  1  0
 17 60  1  0
 17 61  1  0
 22 62  1  0
 22 63  1  0
 23 64  1  0
 23 65  1  0
 24 66  1  0
 24 67  1  0
 25 68  1  0
 25 69  1  0
 27 70  1  0
 27 71  1  0
 28 72  1  0
 28 73  1  0
 29 74  1  0
 30 75  1  0
 30 76  1  0
 31 77  1  0
 31 78  1  0
 32 79  1  0
 37 80  1  0
 38 81  1  0
 39 82  1  0
 40 83  1  0
 42 84  1  0
 43 85  1  0
 45 86  1  0
 46 87  1  0
M  END
>  <DATABASE_ID>  (1) 
DB08827

>  <DATABASE_NAME>  (1) 
drugbank

>  <DRUGBANK_ID>  (1) 
DB08827

>  <DRUG_GROUPS>  (1) 
approved

>  <EXACT_MASS>  (1) 
693.278996673

>  <FORMULA>  (1) 
C39H37F6N3O2

>  <GENERIC_NAME>  (1) 
Lomitapide

>  <INCHI_IDENTIFIER>  (1) 
InChI=1S/C39H37F6N3O2/c40-38(41,42)25-46-36(50)37(33-13-5-3-10-30(33)31-11-4-6-14-34(31)37)21-7-8-22-48-23-19-28(20-24-48)47-35(49)32-12-2-1-9-29(32)26-15-17-27(18-16-26)39(43,44)45/h1-6,9-18,28H,7-8,19-25H2,(H,46,50)(H,47,49)

>  <INCHI_KEY>  (1) 
MBBCVAKAJPKAKM-UHFFFAOYSA-N

>  <INTERNATIONAL_BRANDS>  (1) 
Lojuxta

>  <JCHEM_ACCEPTOR_COUNT>  (1) 
3

>  <JCHEM_AVERAGE_POLARIZABILITY>  (1) 
68.0797429176604

>  <JCHEM_BIOAVAILABILITY>  (1) 
0

>  <JCHEM_DONOR_COUNT>  (1) 
2

>  <JCHEM_FORMAL_CHARGE>  (1) 
0

>  <JCHEM_GHOSE_FILTER>  (1) 
0

>  <JCHEM_IUPAC>  (1) 
N-(2,2,2-trifluoroethyl)-9-[4-(4-{2-[4-(trifluoromethyl)phenyl]benzamido}piperidin-1-yl)butyl]-9H-fluorene-9-carboxamide

>  <JCHEM_LOGP>  (1) 
7.70439737871624

>  <JCHEM_MDDR_LIKE_RULE>  (1) 
1

>  <JCHEM_NUMBER_OF_RINGS>  (1) 
6

>  <JCHEM_PHYSIOLOGICAL_CHARGE>  (1) 
1

>  <JCHEM_PKA>  (1) 
15.561905817958088

>  <JCHEM_PKA_STRONGEST_ACIDIC>  (1) 
10.350274349398992

>  <JCHEM_PKA_STRONGEST_BASIC>  (1) 
9.018740133694248

>  <JCHEM_POLAR_SURFACE_AREA>  (1) 
61.440000000000005

>  <JCHEM_REFRACTIVITY>  (1) 
181.7272999999999

>  <JCHEM_ROTATABLE_BOND_COUNT>  (1) 
12

>  <JCHEM_RULE_OF_FIVE>  (1) 
0

>  <JCHEM_TRADITIONAL_IUPAC>  (1) 
lomitapide

>  <JCHEM_VEBER_RULE>  (1) 
0

>  <MOLECULAR_WEIGHT>  (1) 
693.7204

>  <PRODUCTS>  (1) 
Juxtapid

>  <SALTS>  (1) 
Lomitapide mesylate

>  <SMILES>  (1) 
FC(F)(F)CNC(=O)C1(CCCCN2CCC(CC2)NC(=O)C2=C(C=CC=C2)C2=CC=C(C=C2)C(F)(F)F)C2=CC=CC=C2C2=CC=CC=C12

$$$$
