
     RDKit          2D

 44 46  0  0  0  0  0  0  0  0999 V2000
    4.4222   -3.3243    0.0000 C   0  0  0  0  0  0  0  0  0  0  0  0
    8.1567   -3.3243    0.0000 C   0  0  0  0  0  0  0  0  0  0  0  0
    5.2426   -3.4105    0.0000 C   0  0  0  0  0  0  0  0  0  0  0  0
    4.0866   -2.5706    0.0000 C   0  0  0  0  0  0  0  0  0  0  0  0
    8.4923   -2.5706    0.0000 C   0  0  0  0  0  0  0  0  0  0  0  0
    7.3362   -3.4105    0.0000 C   0  0  0  0  0  0  0  0  0  0  0  0
    5.7276   -2.7431    0.0000 C   0  0  0  0  0  0  0  0  0  0  0  0
    4.5715   -1.9032    0.0000 C   0  0  0  0  0  0  0  0  0  0  0  0
    8.0073   -1.9032    0.0000 C   0  0  0  0  0  0  0  0  0  0  0  0
    6.8513   -2.7431    0.0000 C   0  0  0  0  0  0  0  0  0  0  0  0
    5.5750    1.1850    0.0000 C   0  0  0  0  0  0  0  0  0  0  0  0
    7.0039    1.1850    0.0000 C   0  0  0  0  0  0  0  0  0  0  0  0
    5.5750    2.0100    0.0000 C   0  0  0  0  0  0  0  0  0  0  0  0
    7.0039    2.0100    0.0000 C   0  0  0  0  0  0  0  0  0  0  0  0
    5.3920   -1.9894    0.0000 C   0  0  0  0  0  0  0  0  0  0  0  0
    7.1868   -1.9894    0.0000 C   0  0  0  0  0  0  0  0  0  0  0  0
    5.8769   -1.3220    0.0000 C   0  0  0  0  0  0  0  0  0  0  0  0
    6.7019   -1.3220    0.0000 C   0  0  0  0  0  0  0  0  0  0  0  0
    6.2894   -0.0524    0.0000 C   0  0  0  0  0  0  0  0  0  0  0  0
    5.6220   -0.5374    0.0000 N   0  0  0  0  0  0  0  0  0  0  0  0
    6.2894    0.7725    0.0000 N   0  0  0  0  0  0  0  0  0  0  0  0
    4.8605    2.4225    0.0000 O   0  0  0  0  0  0  0  0  0  0  0  0
    7.7184    2.4225    0.0000 O   0  0  0  0  0  0  0  0  0  0  0  0
    6.9569   -0.5374    0.0000 O   0  0  0  0  0  0  0  0  0  0  0  0
    0.0000    0.0000    0.0000 H   0  0  0  0  0  0  0  0  0  0  0  0
    0.0000    0.0000    0.0000 H   0  0  0  0  0  0  0  0  0  0  0  0
    0.0000    0.0000    0.0000 H   0  0  0  0  0  0  0  0  0  0  0  0
    0.0000    0.0000    0.0000 H   0  0  0  0  0  0  0  0  0  0  0  0
    0.0000    0.0000    0.0000 H   0  0  0  0  0  0  0  0  0  0  0  0
    0.0000    0.0000    0.0000 H   0  0  0  0  0  0  0  0  0  0  0  0
    0.0000    0.0000    0.0000 H   0  0  0  0  0  0  0  0  0  0  0  0
    0.0000    0.0000    0.0000 H   0  0  0  0  0  0  0  0  0  0  0  0
    0.0000    0.0000    0.0000 H   0  0  0  0  0  0  0  0  0  0  0  0
    0.0000    0.0000    0.0000 H   0  0  0  0  0  0  0  0  0  0  0  0
    0.0000    0.0000    0.0000 H   0  0  0  0  0  0  0  0  0  0  0  0
    0.0000    0.0000    0.0000 H   0  0  0  0  0  0  0  0  0  0  0  0
    0.0000    0.0000    0.0000 H   0  0  0  0  0  0  0  0  0  0  0  0
    0.0000    0.0000    0.0000 H   0  0  0  0  0  0  0  0  0  0  0  0
    0.0000    0.0000    0.0000 H   0  0  0  0  0  0  0  0  0  0  0  0
    0.0000    0.0000    0.0000 H   0  0  0  0  0  0  0  0  0  0  0  0
    0.0000    0.0000    0.0000 H   0  0  0  0  0  0  0  0  0  0  0  0
    0.0000    0.0000    0.0000 H   0  0  0  0  0  0  0  0  0  0  0  0
    0.0000    0.0000    0.0000 H   0  0  0  0  0  0  0  0  0  0  0  0
    0.0000    0.0000    0.0000 H   0  0  0  0  0  0  0  0  0  0  0  0
  3  1  2  0
  4  1  1  0
  5  2  2  0
  6  2  1  0
  7  3  1  0
  8  4  2  0
  9  5  1  0
 10  6  2  0
 13 11  1  0
 14 12  1  0
 15  7  2  0
 15  8  1  0
 16  9  2  0
 16 10  1  0
 17 15  1  0
 18 16  1  0
 18 17  2  0
 20 17  1  0
 20 19  2  0
 21 11  1  0
 21 12  1  0
 21 19  1  0
 22 13  1  0
 23 14  1  0
 24 18  1  0
 24 19  1  0
  1 25  1  0
  2 26  1  0
  3 27  1  0
  4 28  1  0
  5 29  1  0
  6 30  1  0
  7 31  1  0
  8 32  1  0
  9 33  1  0
 10 34  1  0
 11 35  1  0
 11 36  1  0
 12 37  1  0
 12 38  1  0
 13 39  1  0
 13 40  1  0
 14 41  1  0
 14 42  1  0
 22 43  1  0
 23 44  1  0
M  END
>  <ALOGPS_LOGP>  (1) 
2.86

>  <ALOGPS_LOGS>  (1) 
-3.35

>  <ALOGPS_SOLUBILITY>  (1) 
1.46e-01 g/l

>  <DATABASE_ID>  (1) 
DB08994

>  <DATABASE_NAME>  (1) 
drugbank

>  <DRUGBANK_ID>  (1) 
DB08994

>  <DRUG_GROUPS>  (1) 
approved; withdrawn

>  <EXACT_MASS>  (1) 
324.147392516

>  <FORMULA>  (1) 
C19H20N2O3

>  <GENERIC_NAME>  (1) 
Ditazole

>  <INCHI_IDENTIFIER>  (1) 
InChI=1S/C19H20N2O3/c22-13-11-21(12-14-23)19-20-17(15-7-3-1-4-8-15)18(24-19)16-9-5-2-6-10-16/h1-10,22-23H,11-14H2

>  <INCHI_KEY>  (1) 
UUCMDZWCRNZCOY-UHFFFAOYSA-N

>  <INTERNATIONAL_BRANDS>  (1) 
Ageroplas

>  <JCHEM_ACCEPTOR_COUNT>  (1) 
4

>  <JCHEM_AVERAGE_POLARIZABILITY>  (1) 
35.889844059152026

>  <JCHEM_BIOAVAILABILITY>  (1) 
1

>  <JCHEM_DONOR_COUNT>  (1) 
2

>  <JCHEM_FORMAL_CHARGE>  (1) 
0

>  <JCHEM_GHOSE_FILTER>  (1) 
1

>  <JCHEM_IUPAC>  (1) 
2-[(diphenyl-1,3-oxazol-2-yl)(2-hydroxyethyl)amino]ethan-1-ol

>  <JCHEM_LOGP>  (1) 
2.9275292136666664

>  <JCHEM_MDDR_LIKE_RULE>  (1) 
1

>  <JCHEM_NUMBER_OF_RINGS>  (1) 
3

>  <JCHEM_PHYSIOLOGICAL_CHARGE>  (1) 
0

>  <JCHEM_PKA>  (1) 
15.874069670203294

>  <JCHEM_PKA_STRONGEST_ACIDIC>  (1) 
15.27179708338533

>  <JCHEM_PKA_STRONGEST_BASIC>  (1) 
-0.1245390430354375

>  <JCHEM_POLAR_SURFACE_AREA>  (1) 
69.73

>  <JCHEM_REFRACTIVITY>  (1) 
93.0318

>  <JCHEM_ROTATABLE_BOND_COUNT>  (1) 
7

>  <JCHEM_RULE_OF_FIVE>  (1) 
1

>  <JCHEM_TRADITIONAL_IUPAC>  (1) 
ditazole

>  <JCHEM_VEBER_RULE>  (1) 
0

>  <MOLECULAR_WEIGHT>  (1) 
324.3737

>  <SMILES>  (1) 
OCCN(CCO)C1=NC(=C(O1)C1=CC=CC=C1)C1=CC=CC=C1

>  <SYNONYMS>  (1) 
2,2'-(4,5-Diphenyloxazol-2-ylazanediyl)diethanol

$$$$
