[NO NAME]
     RDKit          2D

 66 67  0  0  1  0  0  0  0  0999 V2000
    2.2540   -0.3771    0.0000 F   0  0  0  0  0  0  0  0  0  0  0  0
    3.9040   -0.3771    0.0000 F   0  0  0  0  0  0  0  0  0  0  0  0
    4.6909    3.6223    0.0000 O   0  0  0  0  0  0  0  0  0  0  0  0
    2.3413    1.9153    0.0000 O   0  0  0  0  0  0  0  0  0  0  0  0
    2.3644   -1.6146    0.0000 O   0  0  0  0  0  0  0  0  0  0  0  0
    8.7270   -0.7183    0.0000 O   0  0  0  0  0  0  0  0  0  0  0  0
    9.1686    0.6407    0.0000 O   0  0  0  0  0  0  0  0  0  0  0  0
    4.4609    2.1703    0.0000 C   0  0  0  0  0  0  0  0  0  0  0  0
    3.7934    1.6854    0.0000 C   0  0  0  0  0  0  0  0  0  0  0  0
    4.2059    2.9549    0.0000 C   0  0  0  0  0  0  0  0  0  0  0  0
    3.1260    2.1703    0.0000 C   0  0  0  0  0  0  0  0  0  0  0  0
    3.3809    2.9549    0.0000 C   0  0  0  0  0  0  0  0  0  0  0  0
    5.2454    1.9153    0.0000 C   0  0  0  0  0  0  0  0  0  0  0  0
    3.7934    0.8604    0.0000 C   0  0  0  0  0  0  0  0  0  0  0  0
    5.8586    2.4674    0.0000 C   0  0  0  0  0  0  0  0  0  0  0  0
    3.0790    0.4479    0.0000 C   0  0  0  0  0  0  0  0  0  0  0  0
    6.6432    2.2125    0.0000 C   0  0  0  0  0  0  0  0  0  0  0  0
    3.0790   -0.3771    0.0000 C   0  0  0  0  0  0  0  0  0  0  0  0
    6.8147    1.4055    0.0000 C   0  0  0  0  0  0  0  0  0  0  0  0
    3.0790   -1.2021    0.0000 C   0  0  0  0  0  0  0  0  0  0  0  0
    7.5993    1.1505    0.0000 C   0  0  0  0  0  0  0  0  0  0  0  0
    7.7708    0.3435    0.0000 C   0  0  0  0  0  0  0  0  0  0  0  0
    8.5555    0.0886    0.0000 C   0  0  0  0  0  0  0  0  0  0  0  0
    2.3644   -2.4396    0.0000 C   0  0  0  0  0  0  0  0  0  0  0  0
    9.5117   -0.9733    0.0000 C   0  0  0  0  0  0  0  0  0  0  0  0
    3.0790   -2.8521    0.0000 C   0  0  0  0  0  0  0  0  0  0  0  0
    1.6500   -2.8521    0.0000 C   0  0  0  0  0  0  0  0  0  0  0  0
   10.1247   -0.4212    0.0000 C   0  0  0  0  0  0  0  0  0  0  0  0
    9.6832   -1.7803    0.0000 C   0  0  0  0  0  0  0  0  0  0  0  0
    3.0790   -3.6771    0.0000 C   0  0  0  0  0  0  0  0  0  0  0  0
    1.6500   -3.6771    0.0000 C   0  0  0  0  0  0  0  0  0  0  0  0
    2.3644   -4.0896    0.0000 C   0  0  0  0  0  0  0  0  0  0  0  0
    0.0000    0.0000    0.0000 H   0  0  0  0  0  0  0  0  0  0  0  0
    0.0000    0.0000    0.0000 H   0  0  0  0  0  0  0  0  0  0  0  0
    0.0000    0.0000    0.0000 H   0  0  0  0  0  0  0  0  0  0  0  0
    0.0000    0.0000    0.0000 H   0  0  0  0  0  0  0  0  0  0  0  0
    0.0000    0.0000    0.0000 H   0  0  0  0  0  0  0  0  0  0  0  0
    0.0000    0.0000    0.0000 H   0  0  0  0  0  0  0  0  0  0  0  0
    0.0000    0.0000    0.0000 H   0  0  0  0  0  0  0  0  0  0  0  0
    0.0000    0.0000    0.0000 H   0  0  0  0  0  0  0  0  0  0  0  0
    0.0000    0.0000    0.0000 H   0  0  0  0  0  0  0  0  0  0  0  0
    0.0000    0.0000    0.0000 H   0  0  0  0  0  0  0  0  0  0  0  0
    0.0000    0.0000    0.0000 H   0  0  0  0  0  0  0  0  0  0  0  0
    0.0000    0.0000    0.0000 H   0  0  0  0  0  0  0  0  0  0  0  0
    0.0000    0.0000    0.0000 H   0  0  0  0  0  0  0  0  0  0  0  0
    0.0000    0.0000    0.0000 H   0  0  0  0  0  0  0  0  0  0  0  0
    0.0000    0.0000    0.0000 H   0  0  0  0  0  0  0  0  0  0  0  0
    0.0000    0.0000    0.0000 H   0  0  0  0  0  0  0  0  0  0  0  0
    0.0000    0.0000    0.0000 H   0  0  0  0  0  0  0  0  0  0  0  0
    0.0000    0.0000    0.0000 H   0  0  0  0  0  0  0  0  0  0  0  0
    0.0000    0.0000    0.0000 H   0  0  0  0  0  0  0  0  0  0  0  0
    0.0000    0.0000    0.0000 H   0  0  0  0  0  0  0  0  0  0  0  0
    0.0000    0.0000    0.0000 H   0  0  0  0  0  0  0  0  0  0  0  0
    0.0000    0.0000    0.0000 H   0  0  0  0  0  0  0  0  0  0  0  0
    0.0000    0.0000    0.0000 H   0  0  0  0  0  0  0  0  0  0  0  0
    0.0000    0.0000    0.0000 H   0  0  0  0  0  0  0  0  0  0  0  0
    0.0000    0.0000    0.0000 H   0  0  0  0  0  0  0  0  0  0  0  0
    0.0000    0.0000    0.0000 H   0  0  0  0  0  0  0  0  0  0  0  0
    0.0000    0.0000    0.0000 H   0  0  0  0  0  0  0  0  0  0  0  0
    0.0000    0.0000    0.0000 H   0  0  0  0  0  0  0  0  0  0  0  0
    0.0000    0.0000    0.0000 H   0  0  0  0  0  0  0  0  0  0  0  0
    0.0000    0.0000    0.0000 H   0  0  0  0  0  0  0  0  0  0  0  0
    0.0000    0.0000    0.0000 H   0  0  0  0  0  0  0  0  0  0  0  0
    0.0000    0.0000    0.0000 H   0  0  0  0  0  0  0  0  0  0  0  0
    0.0000    0.0000    0.0000 H   0  0  0  0  0  0  0  0  0  0  0  0
    0.0000    0.0000    0.0000 H   0  0  0  0  0  0  0  0  0  0  0  0
  1 18  1  0
  2 18  1  0
 10  3  1  1
 11  4  1  6
  5 20  1  0
  5 24  1  0
  6 23  1  0
  6 25  1  0
  7 23  2  0
  8  9  1  0
  8 10  1  0
  8 13  1  1
  9 11  1  0
  9 14  1  1
 10 12  1  0
 11 12  1  0
 13 15  1  0
 14 16  2  0
 15 17  2  0
 16 18  1  0
 17 19  1  0
 18 20  1  0
 19 21  1  0
 21 22  1  0
 22 23  1  0
 24 26  2  0
 24 27  1  0
 25 28  1  0
 25 29  1  0
 26 30  1  0
 27 31  2  0
 30 32  2  0
 31 32  1  0
  3 33  1  0
  4 34  1  0
  8 35  1  0
  9 36  1  0
 10 37  1  0
 11 38  1  0
 12 39  1  0
 12 40  1  0
 13 41  1  0
 13 42  1  0
 14 43  1  0
 15 44  1  0
 16 45  1  0
 17 46  1  0
 19 47  1  0
 19 48  1  0
 20 49  1  0
 20 50  1  0
 21 51  1  0
 21 52  1  0
 22 53  1  0
 22 54  1  0
 25 55  1  0
 26 56  1  0
 27 57  1  0
 28 58  1  0
 28 59  1  0
 28 60  1  0
 29 61  1  0
 29 62  1  0
 29 63  1  0
 30 64  1  0
 31 65  1  0
 32 66  1  0
M  END
>  <ALOGPS_LOGP>  (1) 
4.46

>  <ALOGPS_LOGS>  (1) 
-4.93

>  <ALOGPS_SOLUBILITY>  (1) 
5.28e-03 g/l

>  <DATABASE_ID>  (1) 
DB08819

>  <DATABASE_NAME>  (1) 
drugbank

>  <DRUGBANK_ID>  (1) 
DB08819

>  <DRUG_GROUPS>  (1) 
approved

>  <EXACT_MASS>  (1) 
452.237430608

>  <FORMULA>  (1) 
C25H34F2O5

>  <GENERIC_NAME>  (1) 
Tafluprost

>  <INCHI_IDENTIFIER>  (1) 
InChI=1S/C25H34F2O5/c1-18(2)32-24(30)13-9-4-3-8-12-20-21(23(29)16-22(20)28)14-15-25(26,27)17-31-19-10-6-5-7-11-19/h3,5-8,10-11,14-15,18,20-23,28-29H,4,9,12-13,16-17H2,1-2H3/b8-3-,15-14+/t20-,21-,22+,23-/m1/s1

>  <INCHI_KEY>  (1) 
WSNODXPBBALQOF-VEJSHDCNSA-N

>  <INTERNATIONAL_BRANDS>  (1) 
Taflotan

>  <JCHEM_ACCEPTOR_COUNT>  (1) 
4

>  <JCHEM_AVERAGE_POLARIZABILITY>  (1) 
48.6535257011762

>  <JCHEM_BIOAVAILABILITY>  (1) 
1

>  <JCHEM_DONOR_COUNT>  (1) 
2

>  <JCHEM_FORMAL_CHARGE>  (1) 
0

>  <JCHEM_GHOSE_FILTER>  (1) 
1

>  <JCHEM_IUPAC>  (1) 
propan-2-yl (5Z)-7-[(1R,2R,3R,5S)-2-[(1E)-3,3-difluoro-4-phenoxybut-1-en-1-yl]-3,5-dihydroxycyclopentyl]hept-5-enoate

>  <JCHEM_LOGP>  (1) 
4.2923223713333325

>  <JCHEM_MDDR_LIKE_RULE>  (1) 
0

>  <JCHEM_NUMBER_OF_RINGS>  (1) 
2

>  <JCHEM_PHYSIOLOGICAL_CHARGE>  (1) 
0

>  <JCHEM_PKA>  (1) 
15.223490488779635

>  <JCHEM_PKA_STRONGEST_ACIDIC>  (1) 
14.513877492123004

>  <JCHEM_PKA_STRONGEST_BASIC>  (1) 
-2.8720050891706874

>  <JCHEM_POLAR_SURFACE_AREA>  (1) 
75.99000000000001

>  <JCHEM_REFRACTIVITY>  (1) 
120.58930000000002

>  <JCHEM_ROTATABLE_BOND_COUNT>  (1) 
13

>  <JCHEM_RULE_OF_FIVE>  (1) 
1

>  <JCHEM_TRADITIONAL_IUPAC>  (1) 
tafluprost

>  <JCHEM_VEBER_RULE>  (1) 
0

>  <MOLECULAR_WEIGHT>  (1) 
452.5313

>  <PRODUCTS>  (1) 
Saflutan; Zioptan

>  <SMILES>  (1) 
CC(C)OC(=O)CCC\C=C/C[C@H]1[C@@H](O)C[C@@H](O)[C@@H]1\C=C\C(F)(F)COC1=CC=CC=C1

$$$$
