
     RDKit          2D

  6  5  0  0  0  0  0  0  0  0999 V2000
    0.1105   -1.2375    0.0000 K   0  0  0  0  0  0  0  0  0  0  0  0
    0.8250   -0.8250    0.0000 O   0  0  0  0  0  0  0  0  0  0  0  0
    0.8250    0.0000    0.0000 Cl  0  0  0  0  0  0  0  0  0  0  0  0
    0.8250    0.8250    0.0000 O   0  0  0  0  0  0  0  0  0  0  0  0
    1.6500    0.0000    0.0000 O   0  0  0  0  0  0  0  0  0  0  0  0
    0.0000    0.0000    0.0000 O   0  0  0  0  0  0  0  0  0  0  0  0
  1  2  1  0
  2  3  1  0
  3  4  1  0
  3  5  1  0
  3  6  1  0
M  CHG  4   3   3   4  -1   5  -1   6  -1
M  END
>  <DATABASE_ID>  (1) 
DB09418

>  <DATABASE_NAME>  (1) 
drugbank

>  <DRUGBANK_ID>  (1) 
DB09418

>  <DRUG_GROUPS>  (1) 
approved; investigational

>  <EXACT_MASS>  (1) 
137.912218056

>  <FORMULA>  (1) 
ClKO4

>  <GENERIC_NAME>  (1) 
Potassium perchlorate

>  <INCHI_IDENTIFIER>  (1) 
InChI=1S/ClHO4.K/c2-1(3,4)5;/h(H,2,3,4,5);/q;+1/p-1

>  <INCHI_KEY>  (1) 
YLMGFJXSLBMXHK-UHFFFAOYSA-M

>  <JCHEM_ACCEPTOR_COUNT>  (1) 
3

>  <JCHEM_AVERAGE_POLARIZABILITY>  (1) 
7.1330649676552556

>  <JCHEM_BIOAVAILABILITY>  (1) 
1

>  <JCHEM_DONOR_COUNT>  (1) 
0

>  <JCHEM_FORMAL_CHARGE>  (1) 
0

>  <JCHEM_GHOSE_FILTER>  (1) 
0

>  <JCHEM_IUPAC>  (1) 
potassium perchlorate

>  <JCHEM_LOGP>  (1) 
0.05149999999999993

>  <JCHEM_MDDR_LIKE_RULE>  (1) 
0

>  <JCHEM_NUMBER_OF_RINGS>  (1) 
0

>  <JCHEM_PHYSIOLOGICAL_CHARGE>  (1) 
0

>  <JCHEM_POLAR_SURFACE_AREA>  (1) 
60.440000000000005

>  <JCHEM_REFRACTIVITY>  (1) 
11.8152

>  <JCHEM_ROTATABLE_BOND_COUNT>  (1) 
1

>  <JCHEM_RULE_OF_FIVE>  (1) 
1

>  <JCHEM_TRADITIONAL_IUPAC>  (1) 
potassium perchlorate

>  <JCHEM_VEBER_RULE>  (1) 
0

>  <MOLECULAR_WEIGHT>  (1) 
138.549

>  <PRODUCTS>  (1) 
Perchloracap Capsule 200mg

>  <SMILES>  (1) 
[K]O[Cl](=O)(=O)=O

$$$$
