
     RDKit          2D

 99103  0  0  1  0  0  0  0  0999 V2000
   15.4840    1.7295    0.0000 C   0  0  0  0  0  0  0  0  0  0  0  0
   16.1985    1.3170    0.0000 O   0  0  0  0  0  0  0  0  0  0  0  0
   16.9130    1.7295    0.0000 C   0  0  0  0  0  0  0  0  0  0  0  0
   17.6274    1.3170    0.0000 C   0  0  0  0  0  0  0  0  0  0  0  0
   18.3419    1.7295    0.0000 O   0  0  0  0  0  0  0  0  0  0  0  0
   19.0564    1.3170    0.0000 C   0  0  0  0  0  0  0  0  0  0  0  0
   19.7708    1.7295    0.0000 C   0  0  0  0  0  0  0  0  0  0  0  0
   20.4853    1.3170    0.0000 O   0  0  0  0  0  0  0  0  0  0  0  0
   21.1998    1.7295    0.0000 C   0  0  0  0  0  0  0  0  0  0  0  0
   21.9142    1.3170    0.0000 C   0  0  0  0  0  0  0  0  0  0  0  0
   22.6287    1.7295    0.0000 O   0  0  0  0  0  0  0  0  0  0  0  0
   23.3432    1.3170    0.0000 C   0  0  0  0  0  0  0  0  0  0  0  0
   24.0577    1.7295    0.0000 C   0  0  0  0  0  0  0  0  0  0  0  0
   24.7721    1.3170    0.0000 O   0  0  0  0  0  0  0  0  0  0  0  0
   25.4866    1.7295    0.0000 C   0  0  0  0  0  0  0  0  0  0  0  0
   26.2011    1.3170    0.0000 C   0  0  0  0  0  0  0  0  0  0  0  0
   26.9155    1.7295    0.0000 O   0  0  0  0  0  0  0  0  0  0  0  0
   27.6300    1.3170    0.0000 C   0  0  0  0  0  0  0  0  0  0  0  0
   28.3445    1.7295    0.0000 C   0  0  0  0  0  0  0  0  0  0  0  0
   29.0590    1.3170    0.0000 O   0  0  0  0  0  0  0  0  0  0  0  0
   29.7734    1.7295    0.0000 C   0  0  0  0  0  0  0  0  0  0  0  0
   30.4879    1.3170    0.0000 C   0  0  0  0  0  0  0  0  0  0  0  0
   31.2024    1.7295    0.0000 O   0  0  0  0  0  0  0  0  0  0  0  0
   31.9168    1.3170    0.0000 C   0  0  0  0  0  0  0  0  0  0  0  0
   32.6200    1.7393    0.0000 C   0  0  0  0  0  0  0  0  0  0  0  0
   33.2801    1.2795    0.0000 C   0  0  0  0  0  0  0  0  0  0  0  0
   33.2220    0.2963    0.0000 C   0  0  0  0  0  0  0  0  0  0  0  0
   33.8679   -0.4439    0.0000 C   0  0  0  0  0  0  0  0  0  0  0  0
   33.6877   -1.2424    0.0000 C   0  0  0  0  0  0  0  0  0  0  0  0
   32.8932   -1.3793    0.0000 C   0  0  0  0  0  0  0  0  0  0  0  0
   32.6381   -2.1683    0.0000 C   0  0  0  0  0  0  0  0  0  0  0  0
   31.8246   -2.3144    0.0000 C   0  0  0  0  0  0  0  0  0  0  0  0
   31.2906   -1.6696    0.0000 C   0  0  0  0  0  0  0  0  0  0  0  0
   31.5587   -0.8590    0.0000 C   0  0  0  0  0  0  0  0  0  0  0  0
   32.3699   -0.7339    0.0000 C   0  0  0  0  0  0  0  0  0  0  0  0
   32.6717    0.0934    0.0000 C   0  0  0  0  0  0  0  0  0  0  0  0
   31.9023    0.4759    0.0000 C   0  0  0  0  0  0  0  0  0  0  0  0
   31.2725   -0.0708    0.0000 O   0  0  0  0  0  0  0  0  0  0  0  0
   33.4327    0.7959    0.0000 C   0  0  0  0  0  0  0  0  0  0  0  0
   34.3303    0.7511    0.0000 C   0  0  0  0  0  0  0  0  0  0  0  0
   34.5561   -0.0341    0.0000 N   0  0  0  0  0  0  0  0  0  0  0  0
   35.3232   -0.3378    0.0000 C   0  0  0  0  0  0  0  0  0  0  0  0
   35.9697    0.1747    0.0000 C   0  0  0  0  0  0  0  0  0  0  0  0
   35.8491    0.9908    0.0000 C   0  0  0  0  0  0  0  0  0  0  0  0
   30.4799   -1.8223    0.0000 O   0  0  0  0  0  0  0  0  0  0  0  0
   34.0027    0.5630    0.0000 O   0  0  0  0  0  0  0  0  0  0  0  0
    0.0000    0.0000    0.0000 H   0  0  0  0  0  0  0  0  0  0  0  0
    0.0000    0.0000    0.0000 H   0  0  0  0  0  0  0  0  0  0  0  0
    0.0000    0.0000    0.0000 H   0  0  0  0  0  0  0  0  0  0  0  0
    0.0000    0.0000    0.0000 H   0  0  0  0  0  0  0  0  0  0  0  0
    0.0000    0.0000    0.0000 H   0  0  0  0  0  0  0  0  0  0  0  0
    0.0000    0.0000    0.0000 H   0  0  0  0  0  0  0  0  0  0  0  0
    0.0000    0.0000    0.0000 H   0  0  0  0  0  0  0  0  0  0  0  0
    0.0000    0.0000    0.0000 H   0  0  0  0  0  0  0  0  0  0  0  0
    0.0000    0.0000    0.0000 H   0  0  0  0  0  0  0  0  0  0  0  0
    0.0000    0.0000    0.0000 H   0  0  0  0  0  0  0  0  0  0  0  0
    0.0000    0.0000    0.0000 H   0  0  0  0  0  0  0  0  0  0  0  0
    0.0000    0.0000    0.0000 H   0  0  0  0  0  0  0  0  0  0  0  0
    0.0000    0.0000    0.0000 H   0  0  0  0  0  0  0  0  0  0  0  0
    0.0000    0.0000    0.0000 H   0  0  0  0  0  0  0  0  0  0  0  0
    0.0000    0.0000    0.0000 H   0  0  0  0  0  0  0  0  0  0  0  0
    0.0000    0.0000    0.0000 H   0  0  0  0  0  0  0  0  0  0  0  0
    0.0000    0.0000    0.0000 H   0  0  0  0  0  0  0  0  0  0  0  0
    0.0000    0.0000    0.0000 H   0  0  0  0  0  0  0  0  0  0  0  0
    0.0000    0.0000    0.0000 H   0  0  0  0  0  0  0  0  0  0  0  0
    0.0000    0.0000    0.0000 H   0  0  0  0  0  0  0  0  0  0  0  0
    0.0000    0.0000    0.0000 H   0  0  0  0  0  0  0  0  0  0  0  0
    0.0000    0.0000    0.0000 H   0  0  0  0  0  0  0  0  0  0  0  0
    0.0000    0.0000    0.0000 H   0  0  0  0  0  0  0  0  0  0  0  0
    0.0000    0.0000    0.0000 H   0  0  0  0  0  0  0  0  0  0  0  0
    0.0000    0.0000    0.0000 H   0  0  0  0  0  0  0  0  0  0  0  0
    0.0000    0.0000    0.0000 H   0  0  0  0  0  0  0  0  0  0  0  0
    0.0000    0.0000    0.0000 H   0  0  0  0  0  0  0  0  0  0  0  0
    0.0000    0.0000    0.0000 H   0  0  0  0  0  0  0  0  0  0  0  0
    0.0000    0.0000    0.0000 H   0  0  0  0  0  0  0  0  0  0  0  0
    0.0000    0.0000    0.0000 H   0  0  0  0  0  0  0  0  0  0  0  0
    0.0000    0.0000    0.0000 H   0  0  0  0  0  0  0  0  0  0  0  0
    0.0000    0.0000    0.0000 H   0  0  0  0  0  0  0  0  0  0  0  0
    0.0000    0.0000    0.0000 H   0  0  0  0  0  0  0  0  0  0  0  0
    0.0000    0.0000    0.0000 H   0  0  0  0  0  0  0  0  0  0  0  0
    0.0000    0.0000    0.0000 H   0  0  0  0  0  0  0  0  0  0  0  0
    0.0000    0.0000    0.0000 H   0  0  0  0  0  0  0  0  0  0  0  0
    0.0000    0.0000    0.0000 H   0  0  0  0  0  0  0  0  0  0  0  0
    0.0000    0.0000    0.0000 H   0  0  0  0  0  0  0  0  0  0  0  0
    0.0000    0.0000    0.0000 H   0  0  0  0  0  0  0  0  0  0  0  0
    0.0000    0.0000    0.0000 H   0  0  0  0  0  0  0  0  0  0  0  0
    0.0000    0.0000    0.0000 H   0  0  0  0  0  0  0  0  0  0  0  0
    0.0000    0.0000    0.0000 H   0  0  0  0  0  0  0  0  0  0  0  0
    0.0000    0.0000    0.0000 H   0  0  0  0  0  0  0  0  0  0  0  0
    0.0000    0.0000    0.0000 H   0  0  0  0  0  0  0  0  0  0  0  0
    0.0000    0.0000    0.0000 H   0  0  0  0  0  0  0  0  0  0  0  0
    0.0000    0.0000    0.0000 H   0  0  0  0  0  0  0  0  0  0  0  0
    0.0000    0.0000    0.0000 H   0  0  0  0  0  0  0  0  0  0  0  0
    0.0000    0.0000    0.0000 H   0  0  0  0  0  0  0  0  0  0  0  0
    0.0000    0.0000    0.0000 H   0  0  0  0  0  0  0  0  0  0  0  0
    0.0000    0.0000    0.0000 H   0  0  0  0  0  0  0  0  0  0  0  0
    0.0000    0.0000    0.0000 H   0  0  0  0  0  0  0  0  0  0  0  0
    0.0000    0.0000    0.0000 H   0  0  0  0  0  0  0  0  0  0  0  0
    0.0000    0.0000    0.0000 H   0  0  0  0  0  0  0  0  0  0  0  0
  1  2  1  0
  2  3  1  0
  3  4  1  0
  4  5  1  0
  5  6  1  0
  6  7  1  0
  7  8  1  0
  8  9  1  0
  9 10  1  0
 10 11  1  0
 11 12  1  0
 12 13  1  0
 13 14  1  0
 14 15  1  0
 15 16  1  0
 16 17  1  0
 17 18  1  0
 18 19  1  0
 19 20  1  0
 20 21  1  0
 21 22  1  0
 22 23  1  0
 24 23  1  1
 24 25  1  0
 25 26  1  0
 26 27  1  0
 27 28  1  0
 28 29  1  0
 29 30  1  0
 30 31  2  0
 31 32  1  0
 32 33  2  0
 33 34  1  0
 34 35  2  0
 30 35  1  0
 36 35  1  0
 27 36  1  0
 36 37  1  0
 24 37  1  0
 37 38  1  0
 34 38  1  0
 36 39  1  6
 39 40  1  0
 40 41  1  0
 28 41  1  0
 41 42  1  0
 42 43  1  0
 43 44  2  3
 33 45  1  0
 27 46  1  6
  1 47  1  0
  1 48  1  0
  1 49  1  0
  3 50  1  0
  3 51  1  0
  4 52  1  0
  4 53  1  0
  6 54  1  0
  6 55  1  0
  7 56  1  0
  7 57  1  0
  9 58  1  0
  9 59  1  0
 10 60  1  0
 10 61  1  0
 12 62  1  0
 12 63  1  0
 13 64  1  0
 13 65  1  0
 15 66  1  0
 15 67  1  0
 16 68  1  0
 16 69  1  0
 18 70  1  0
 18 71  1  0
 19 72  1  0
 19 73  1  0
 21 74  1  0
 21 75  1  0
 22 76  1  0
 22 77  1  0
 24 78  1  0
 25 79  1  0
 25 80  1  0
 26 81  1  0
 26 82  1  0
 28 83  1  1
 29 84  1  0
 29 85  1  0
 31 86  1  0
 32 87  1  0
 37 88  1  6
 39 89  1  0
 39 90  1  0
 40 91  1  0
 40 92  1  0
 42 93  1  0
 42 94  1  0
 43 95  1  0
 44 96  1  0
 44 97  1  0
 45 98  1  0
 46 99  1  0
M  END
>  <ALOGPS_LOGP>  (1) 
1.73

>  <ALOGPS_LOGS>  (1) 
-4.06

>  <ALOGPS_SOLUBILITY>  (1) 
5.66e-02 g/l

>  <DATABASE_ID>  (1) 
DB09049

>  <DATABASE_NAME>  (1) 
drugbank

>  <DRUGBANK_ID>  (1) 
DB09049

>  <DRUG_GROUPS>  (1) 
approved

>  <EXACT_MASS>  (1) 
651.361861531

>  <FORMULA>  (1) 
C34H53NO11

>  <GENERIC_NAME>  (1) 
Naloxegol

>  <INCHI_IDENTIFIER>  (1) 
InChI=1S/C34H53NO11/c1-3-9-35-10-8-33-30-26-4-5-27(36)31(30)46-32(33)28(6-7-34(33,37)29(35)25-26)45-24-23-44-22-21-43-20-19-42-18-17-41-16-15-40-14-13-39-12-11-38-2/h3-5,28-29,32,36-37H,1,6-25H2,2H3/t28-,29+,32-,33-,34+/m0/s1

>  <INCHI_KEY>  (1) 
XNKCCCKFOQNXKV-ZRSCBOBOSA-N

>  <JCHEM_ACCEPTOR_COUNT>  (1) 
12

>  <JCHEM_ATOM_COUNT>  (1) 
99

>  <JCHEM_AVERAGE_POLARIZABILITY>  (1) 
72.87109384204567

>  <JCHEM_BIOAVAILABILITY>  (1) 
0

>  <JCHEM_DONOR_COUNT>  (1) 
2

>  <JCHEM_FORMAL_CHARGE>  (1) 
0

>  <JCHEM_GHOSE_FILTER>  (1) 
0

>  <JCHEM_IUPAC>  (1) 
(1S,5R,13R,14S,17S)-14-(2,5,8,11,14,17,20-heptaoxadocosan-22-yloxy)-4-(prop-2-en-1-yl)-12-oxa-4-azapentacyclo[9.6.1.0¹,¹³.0⁵,¹⁷.0⁷,¹⁸]octadeca-7,9,11(18)-triene-10,17-diol

>  <JCHEM_LOGP>  (1) 
1.3564175840257162

>  <JCHEM_MDDR_LIKE_RULE>  (1) 
1

>  <JCHEM_NUMBER_OF_RINGS>  (1) 
5

>  <JCHEM_PHYSIOLOGICAL_CHARGE>  (1) 
1

>  <JCHEM_PKA>  (1) 
13.602821722404922

>  <JCHEM_PKA_STRONGEST_ACIDIC>  (1) 
10.1441325147756

>  <JCHEM_PKA_STRONGEST_BASIC>  (1) 
8.535683709998867

>  <JCHEM_POLAR_SURFACE_AREA>  (1) 
126.77000000000002

>  <JCHEM_REFRACTIVITY>  (1) 
171.6753

>  <JCHEM_ROTATABLE_BOND_COUNT>  (1) 
24

>  <JCHEM_RULE_OF_FIVE>  (1) 
0

>  <JCHEM_TRADITIONAL_IUPAC>  (1) 
(1S,5R,13R,14S,17S)-14-(2,5,8,11,14,17,20-heptaoxadocosan-22-yloxy)-4-(prop-2-en-1-yl)-12-oxa-4-azapentacyclo[9.6.1.0¹,¹³.0⁵,¹⁷.0⁷,¹⁸]octadeca-7,9,11(18)-triene-10,17-diol

>  <JCHEM_VEBER_RULE>  (1) 
0

>  <MOLECULAR_WEIGHT>  (1) 
651.794

>  <PRODUCTS>  (1) 
Movantik; Moventig

>  <SALTS>  (1) 
Naloxegol oxalate

>  <SMILES>  (1) 
COCCOCCOCCOCCOCCOCCOCCO[C@H]1CC[C@@]2(O)[C@H]3CC4=CC=C(O)C5=C4[C@@]2(CCN3CC=C)[C@H]1O5

>  <SYNONYMS>  (1) 
(5α,6α)-17-Allyl-6-[(20-hydroxy-3,6,9,12,15,18-hexaoxaicos-1-yl)oxy]-4,5-epoxymorphinan-3,14-diol

$$$$
