
     RDKit          2D

 46 48  0  0  0  0  0  0  0  0999 V2000
    4.2584    1.1193    0.0000 C   0  0  0  0  0  0  0  0  0  0  0  0
    4.9728    1.5318    0.0000 N   0  0  0  0  0  0  0  0  0  0  0  0
    4.9728    2.3568    0.0000 C   0  0  0  0  0  0  0  0  0  0  0  0
    5.6873    1.1193    0.0000 C   0  0  0  0  0  0  0  0  0  0  0  0
    6.4018    1.5318    0.0000 C   0  0  0  0  0  0  0  0  0  0  0  0
    7.1162    1.1193    0.0000 C   0  0  0  0  0  0  0  0  0  0  0  0
    7.8307    1.5318    0.0000 O   0  0  0  0  0  0  0  0  0  0  0  0
    8.5452    1.1193    0.0000 C   0  0  0  0  0  0  0  0  0  0  0  0
    9.2989    1.4548    0.0000 N   0  0  0  0  0  0  0  0  0  0  0  0
    9.8509    0.8418    0.0000 N   0  0  0  0  0  0  0  0  0  0  0  0
   10.6714    0.9280    0.0000 C   0  0  0  0  0  0  0  0  0  0  0  0
   11.1563    0.2606    0.0000 C   0  0  0  0  0  0  0  0  0  0  0  0
   11.9768    0.3468    0.0000 C   0  0  0  0  0  0  0  0  0  0  0  0
   12.4617   -0.3207    0.0000 C   0  0  0  0  0  0  0  0  0  0  0  0
   12.1261   -1.0743    0.0000 C   0  0  0  0  0  0  0  0  0  0  0  0
   11.3057   -1.1606    0.0000 C   0  0  0  0  0  0  0  0  0  0  0  0
   10.8207   -0.4931    0.0000 C   0  0  0  0  0  0  0  0  0  0  0  0
    9.4384    0.1273    0.0000 C   0  0  0  0  0  0  0  0  0  0  0  0
    9.6933   -0.6573    0.0000 C   0  0  0  0  0  0  0  0  0  0  0  0
    9.1413   -1.2704    0.0000 C   0  0  0  0  0  0  0  0  0  0  0  0
    8.3343   -1.0989    0.0000 C   0  0  0  0  0  0  0  0  0  0  0  0
    8.0794   -0.3143    0.0000 C   0  0  0  0  0  0  0  0  0  0  0  0
    8.6314    0.2988    0.0000 C   0  0  0  0  0  0  0  0  0  0  0  0
    0.0000    0.0000    0.0000 H   0  0  0  0  0  0  0  0  0  0  0  0
    0.0000    0.0000    0.0000 H   0  0  0  0  0  0  0  0  0  0  0  0
    0.0000    0.0000    0.0000 H   0  0  0  0  0  0  0  0  0  0  0  0
    0.0000    0.0000    0.0000 H   0  0  0  0  0  0  0  0  0  0  0  0
    0.0000    0.0000    0.0000 H   0  0  0  0  0  0  0  0  0  0  0  0
    0.0000    0.0000    0.0000 H   0  0  0  0  0  0  0  0  0  0  0  0
    0.0000    0.0000    0.0000 H   0  0  0  0  0  0  0  0  0  0  0  0
    0.0000    0.0000    0.0000 H   0  0  0  0  0  0  0  0  0  0  0  0
    0.0000    0.0000    0.0000 H   0  0  0  0  0  0  0  0  0  0  0  0
    0.0000    0.0000    0.0000 H   0  0  0  0  0  0  0  0  0  0  0  0
    0.0000    0.0000    0.0000 H   0  0  0  0  0  0  0  0  0  0  0  0
    0.0000    0.0000    0.0000 H   0  0  0  0  0  0  0  0  0  0  0  0
    0.0000    0.0000    0.0000 H   0  0  0  0  0  0  0  0  0  0  0  0
    0.0000    0.0000    0.0000 H   0  0  0  0  0  0  0  0  0  0  0  0
    0.0000    0.0000    0.0000 H   0  0  0  0  0  0  0  0  0  0  0  0
    0.0000    0.0000    0.0000 H   0  0  0  0  0  0  0  0  0  0  0  0
    0.0000    0.0000    0.0000 H   0  0  0  0  0  0  0  0  0  0  0  0
    0.0000    0.0000    0.0000 H   0  0  0  0  0  0  0  0  0  0  0  0
    0.0000    0.0000    0.0000 H   0  0  0  0  0  0  0  0  0  0  0  0
    0.0000    0.0000    0.0000 H   0  0  0  0  0  0  0  0  0  0  0  0
    0.0000    0.0000    0.0000 H   0  0  0  0  0  0  0  0  0  0  0  0
    0.0000    0.0000    0.0000 H   0  0  0  0  0  0  0  0  0  0  0  0
    0.0000    0.0000    0.0000 H   0  0  0  0  0  0  0  0  0  0  0  0
  1  2  1  0
  2  3  1  0
  2  4  1  0
  4  5  1  0
  5  6  1  0
  6  7  1  0
  7  8  1  0
  8  9  2  0
  9 10  1  0
 10 11  1  0
 11 12  1  0
 12 13  2  0
 13 14  1  0
 14 15  2  0
 15 16  1  0
 16 17  2  0
 12 17  1  0
 10 18  1  0
 18 19  2  0
 19 20  1  0
 20 21  2  0
 21 22  1  0
 22 23  2  0
  8 23  1  0
 18 23  1  0
  1 24  1  0
  1 25  1  0
  1 26  1  0
  3 27  1  0
  3 28  1  0
  3 29  1  0
  4 30  1  0
  4 31  1  0
  5 32  1  0
  5 33  1  0
  6 34  1  0
  6 35  1  0
 11 36  1  0
 11 37  1  0
 13 38  1  0
 14 39  1  0
 15 40  1  0
 16 41  1  0
 17 42  1  0
 19 43  1  0
 20 44  1  0
 21 45  1  0
 22 46  1  0
M  END
>  <ALOGPS_LOGP>  (1) 
3.78

>  <ALOGPS_LOGS>  (1) 
-3.80

>  <ALOGPS_SOLUBILITY>  (1) 
4.91e-02 g/l

>  <DATABASE_ID>  (1) 
DB09084

>  <DATABASE_NAME>  (1) 
drugbank

>  <DRUGBANK_ID>  (1) 
DB09084

>  <DRUG_GROUPS>  (1) 
approved

>  <EXACT_MASS>  (1) 
309.184112373

>  <FORMULA>  (1) 
C19H23N3O

>  <GENERIC_NAME>  (1) 
Benzydamine

>  <INCHI_IDENTIFIER>  (1) 
InChI=1S/C19H23N3O/c1-21(2)13-8-14-23-19-17-11-6-7-12-18(17)22(20-19)15-16-9-4-3-5-10-16/h3-7,9-12H,8,13-15H2,1-2H3

>  <INCHI_KEY>  (1) 
CNBGNNVCVSKAQZ-UHFFFAOYSA-N

>  <JCHEM_ACCEPTOR_COUNT>  (1) 
3

>  <JCHEM_ATOM_COUNT>  (1) 
46

>  <JCHEM_AVERAGE_POLARIZABILITY>  (1) 
35.62041708632231

>  <JCHEM_BIOAVAILABILITY>  (1) 
1

>  <JCHEM_DONOR_COUNT>  (1) 
0

>  <JCHEM_FORMAL_CHARGE>  (1) 
0

>  <JCHEM_GHOSE_FILTER>  (1) 
1

>  <JCHEM_IUPAC>  (1) 
{3-[(1-benzyl-1H-indazol-3-yl)oxy]propyl}dimethylamine

>  <JCHEM_LOGP>  (1) 
3.659847397

>  <JCHEM_MDDR_LIKE_RULE>  (1) 
1

>  <JCHEM_NUMBER_OF_RINGS>  (1) 
3

>  <JCHEM_PHYSIOLOGICAL_CHARGE>  (1) 
1

>  <JCHEM_PKA_STRONGEST_BASIC>  (1) 
9.256663067303403

>  <JCHEM_POLAR_SURFACE_AREA>  (1) 
30.29

>  <JCHEM_REFRACTIVITY>  (1) 
105.56290000000003

>  <JCHEM_ROTATABLE_BOND_COUNT>  (1) 
7

>  <JCHEM_RULE_OF_FIVE>  (1) 
1

>  <JCHEM_TRADITIONAL_IUPAC>  (1) 
tantum

>  <JCHEM_VEBER_RULE>  (1) 
1

>  <MOLECULAR_WEIGHT>  (1) 
309.413

>  <PRODUCTS>  (1) 
Apo-benzydamine Oral Rinse; Novo-benzydamine; Novo-benzydamine - Oral Rinse; Nu-benzydamine Oral Rinse; Odan-benzydamine; PMS-benzydamine; Pharixia; Ratio-benzydamine; Sun-benz - Liq 0.15%; Tantum

>  <SALTS>  (1) 
Benzydamine hydrochloride

>  <SMILES>  (1) 
CN(C)CCCOC1=NN(CC2=CC=CC=C2)C2=CC=CC=C12

$$$$
