
     RDKit          2D

  3  2  0  0  0  0  0  0  0  0999 V2000
   17.9274  -10.8152    0.0000 C   0  0  0  0  0  0  0  0  0  0  0  0
   17.1024  -10.8152    0.0000 O   0  0  0  0  0  0  0  0  0  0  0  0
   18.7524  -10.8152    0.0000 O   0  0  0  0  0  0  0  0  0  0  0  0
  1  2  2  0
  1  3  2  0
M  END
>  <ALOGPS_LOGP>  (1) 
-0.63

>  <ALOGPS_LOGS>  (1) 
0.63

>  <ALOGPS_SOLUBILITY>  (1) 
1.86e+02 g/l

>  <DATABASE_ID>  (1) 
DB09157

>  <DATABASE_NAME>  (1) 
drugbank

>  <DRUGBANK_ID>  (1) 
DB09157

>  <DRUG_GROUPS>  (1) 
approved; vet_approved

>  <EXACT_MASS>  (1) 
43.989829244

>  <FORMULA>  (1) 
CO2

>  <GENERIC_NAME>  (1) 
Carbon dioxide

>  <INCHI_IDENTIFIER>  (1) 
InChI=1S/CO2/c2-1-3

>  <INCHI_KEY>  (1) 
CURLTUGMZLYLDI-UHFFFAOYSA-N

>  <JCHEM_ACCEPTOR_COUNT>  (1) 
2

>  <JCHEM_AVERAGE_POLARIZABILITY>  (1) 
2.5739427975841807

>  <JCHEM_BIOAVAILABILITY>  (1) 
1

>  <JCHEM_DONOR_COUNT>  (1) 
0

>  <JCHEM_FORMAL_CHARGE>  (1) 
0

>  <JCHEM_GHOSE_FILTER>  (1) 
0

>  <JCHEM_IUPAC>  (1) 
methanedione

>  <JCHEM_LOGP>  (1) 
-0.27895710933333334

>  <JCHEM_MDDR_LIKE_RULE>  (1) 
0

>  <JCHEM_NUMBER_OF_RINGS>  (1) 
0

>  <JCHEM_PHYSIOLOGICAL_CHARGE>  (1) 
0

>  <JCHEM_POLAR_SURFACE_AREA>  (1) 
34.14

>  <JCHEM_REFRACTIVITY>  (1) 
6.3844

>  <JCHEM_ROTATABLE_BOND_COUNT>  (1) 
0

>  <JCHEM_RULE_OF_FIVE>  (1) 
1

>  <JCHEM_TRADITIONAL_IUPAC>  (1) 
carbon dioxide

>  <JCHEM_VEBER_RULE>  (1) 
1

>  <MOLECULAR_WEIGHT>  (1) 
44.0095

>  <PRODUCTS>  (1) 
Air 90% Carbon Dioxide 10%; Carbogen; Carbon Dioxide; Carbon Dioxide 1% W Air; Carbon Dioxide 1% W Oxygen; Carbon Dioxide 100%; Carbon Dioxide 12.1% W Oxygen; Carbon Dioxide 15.1% W Air; Carbon Dioxide 23.1% W Oxygen; Carbon Dioxide 30.1% W Air; Carbon Dioxide 7.1% W Oxygen; Carbon Dioxide 99%; Carbon Dioxide Air; Carbon Dioxide Air Mix; Carbon Dioxide Air Mixture; Carbon Dioxide In Oxygen Mixture; Carbon Dioxide Mixture; Carbon Dioxide Nitrogen; Carbon Dioxide Oxygen; Carbon Dioxide Oxygen Mix; Carbon Dioxide Oxygen Mixture; Carbon Dioxide Refrigerated; Carbon Dioxide USP; Carbon Dioxide USP, Compressed Air USP M.G.m; Carbon Dioxide USP, Oxygen USP Medical G.M.; Carbon Dioxide and Oxygen Mixture, Compressed, Oxidizing, N.O.S.; Carbon Dioxide, Compressed Air Medical G.mix.; Carbon Dioxide-Air Mixture; Carbon Dioxide-Oxygen Mixture; Carbon Dioxide-Oxygen-Nitrogen Mixture; Compressed Gas N.O.S.; Compressed Gas, Oxidizing, N.O.S.; Lung Diffusion Test Mixture; Oxygen Carbon Dioxide Mix; Oxygen Carbon Dioxide Mixture; Oxygen-Carbon Dioxide Mixture

>  <SMILES>  (1) 
O=C=O

$$$$
