
     RDKit          2D

 13 13  0  0  0  0  0  0  0  0999 V2000
   -1.4289   -0.5403    0.0000 Cl  0  0  0  0  0  0  0  0  0  0  0  0
    0.0000   -1.3654    0.0000 O   0  0  0  0  0  0  0  0  0  0  0  0
    1.4289    1.1096    0.0000 O   0  0  0  0  0  0  0  0  0  0  0  0
    0.0000    1.1096    0.0000 N   0  0  0  0  0  0  0  0  0  0  0  0
    0.0000   -0.5403    0.0000 C   0  0  0  0  0  0  0  0  0  0  0  0
   -0.7145   -0.1278    0.0000 C   0  0  0  0  0  0  0  0  0  0  0  0
    0.7145   -0.1278    0.0000 C   0  0  0  0  0  0  0  0  0  0  0  0
   -0.7145    0.6971    0.0000 C   0  0  0  0  0  0  0  0  0  0  0  0
    0.7145    0.6971    0.0000 C   0  0  0  0  0  0  0  0  0  0  0  0
    0.0000    0.0000    0.0000 H   0  0  0  0  0  0  0  0  0  0  0  0
    0.0000    0.0000    0.0000 H   0  0  0  0  0  0  0  0  0  0  0  0
    0.0000    0.0000    0.0000 H   0  0  0  0  0  0  0  0  0  0  0  0
    0.0000    0.0000    0.0000 H   0  0  0  0  0  0  0  0  0  0  0  0
  1  6  1  0
  2  5  1  0
  3  9  2  0
  4  8  1  0
  4  9  1  0
  5  6  1  0
  5  7  2  0
  6  8  2  0
  7  9  1  0
  2 10  1  0
  4 11  1  0
  7 12  1  0
  8 13  1  0
M  END
>  <ALOGPS_LOGP>  (1) 
-0.08

>  <ALOGPS_LOGS>  (1) 
-1.01

>  <ALOGPS_SOLUBILITY>  (1) 
1.42e+01 g/l

>  <DATABASE_ID>  (1) 
DB09257

>  <DATABASE_NAME>  (1) 
drugbank

>  <DRUGBANK_ID>  (1) 
DB09257

>  <DRUG_GROUPS>  (1) 
approved

>  <EXACT_MASS>  (1) 
144.9930561

>  <FORMULA>  (1) 
C5H4ClNO2

>  <GENERIC_NAME>  (1) 
Gimeracil

>  <INCHI_IDENTIFIER>  (1) 
InChI=1S/C5H4ClNO2/c6-3-2-7-5(9)1-4(3)8/h1-2H,(H2,7,8,9)

>  <INCHI_KEY>  (1) 
ZPLQIPFOCGIIHV-UHFFFAOYSA-N

>  <INTERNATIONAL_BRANDS>  (1) 
Teysuno

>  <JCHEM_ACCEPTOR_COUNT>  (1) 
2

>  <JCHEM_ATOM_COUNT>  (1) 
13

>  <JCHEM_AVERAGE_POLARIZABILITY>  (1) 
12.18869233719748

>  <JCHEM_BIOAVAILABILITY>  (1) 
1

>  <JCHEM_DONOR_COUNT>  (1) 
2

>  <JCHEM_FORMAL_CHARGE>  (1) 
0

>  <JCHEM_GHOSE_FILTER>  (1) 
0

>  <JCHEM_IUPAC>  (1) 
5-chloro-4-hydroxy-1,2-dihydropyridin-2-one

>  <JCHEM_LOGP>  (1) 
0.12644476800000015

>  <JCHEM_MDDR_LIKE_RULE>  (1) 
0

>  <JCHEM_NUMBER_OF_RINGS>  (1) 
1

>  <JCHEM_PHYSIOLOGICAL_CHARGE>  (1) 
0

>  <JCHEM_PKA>  (1) 
10.064251977615104

>  <JCHEM_PKA_STRONGEST_ACIDIC>  (1) 
8.659622788050404

>  <JCHEM_PKA_STRONGEST_BASIC>  (1) 
-4.504126957840103

>  <JCHEM_POLAR_SURFACE_AREA>  (1) 
49.33

>  <JCHEM_REFRACTIVITY>  (1) 
34.653800000000004

>  <JCHEM_ROTATABLE_BOND_COUNT>  (1) 
0

>  <JCHEM_RULE_OF_FIVE>  (1) 
1

>  <JCHEM_TRADITIONAL_IUPAC>  (1) 
5-chloro-4-hydroxy-1H-pyridin-2-one

>  <JCHEM_VEBER_RULE>  (1) 
0

>  <MOLECULAR_WEIGHT>  (1) 
145.54

>  <PRODUCTS>  (1) 
Teysuno

>  <SMILES>  (1) 
OC1=CC(=O)NC=C1Cl

>  <SYNONYMS>  (1) 
5-Chloro-2,4-dihydroxypyridine; 5-Chloro-4-hydroxy-2-pyridone; gimestat; Teysuno; Ts-1 (TN)

$$$$
