
     RDKit          2D

 92 93  0  0  0  0  0  0  0  0999 V2000
    4.5828    0.1271    0.0000 C   0  0  0  0  0  0  0  0  0  0  0  0
    4.5732   -0.6649    0.0000 N   0  0  0  0  0  0  0  0  0  0  0  0
    5.3078    0.5161    0.0000 N   0  0  0  0  0  0  0  0  0  0  0  0
    3.8914    0.5449    0.0000 N   0  0  0  0  0  0  0  0  0  0  0  0
    2.4366   -1.0634    0.0000 N   0  0  0  0  0  0  0  0  0  0  0  0
    5.2789   -1.0922    0.0000 C   0  0  0  0  0  0  0  0  0  0  0  0
    3.8530   -1.0827    0.0000 C   0  0  0  0  0  0  0  0  0  0  0  0
    3.1472   -0.6361    0.0000 C   0  0  0  0  0  0  0  0  0  0  0  0
    6.0232   -0.7081    0.0000 C   0  0  0  0  0  0  0  0  0  0  0  0
    7.4491    0.0888    0.0000 C   0  0  0  0  0  0  0  0  0  0  0  0
    6.7194   -1.1115    0.0000 C   0  0  0  0  0  0  0  0  0  0  0  0
    5.9992    0.0983    0.0000 C   0  0  0  0  0  0  0  0  0  0  0  0
    6.7338    0.5209    0.0000 C   0  0  0  0  0  0  0  0  0  0  0  0
    7.4108   -0.7226    0.0000 C   0  0  0  0  0  0  0  0  0  0  0  0
    4.6308    1.7692    0.0000 C   0  0  0  0  0  0  0  0  0  0  0  0
    8.1550    0.5161    0.0000 O   0  0  0  0  0  0  0  0  0  0  0  0
    3.8914    1.3659    0.0000 C   0  0  0  0  0  0  0  0  0  0  0  0
    5.3366    1.3420    0.0000 C   0  0  0  0  0  0  0  0  0  0  0  0
    1.7212   -0.6505    0.0000 C   0  0  0  0  0  0  0  0  0  0  0  0
    2.8399   -1.7692    0.0000 C   0  0  0  0  0  0  0  0  0  0  0  0
    2.0237   -1.7692    0.0000 C   0  0  0  0  0  0  0  0  0  0  0  0
    8.8944    0.1465    0.0000 C   0  0  0  0  0  0  0  0  0  0  0  0
    1.0155   -1.0539    0.0000 C   0  0  0  0  0  0  0  0  0  0  0  0
   -8.2030   -0.7226    0.0000 C   0  0  0  0  0  0  0  0  0  0  0  0
   -7.4972   -1.1115    0.0000 C   0  0  0  0  0  0  0  0  0  0  0  0
   -4.6452   -1.0971    0.0000 C   0  0  0  0  0  0  0  0  0  0  0  0
   -5.3510   -0.6793    0.0000 C   0  0  0  0  0  0  0  0  0  0  0  0
   -6.0856   -1.1066    0.0000 C   0  0  0  0  0  0  0  0  0  0  0  0
   -6.7770   -0.7081    0.0000 C   0  0  0  0  0  0  0  0  0  0  0  0
    0.2952   -0.6505    0.0000 C   0  0  0  0  0  0  0  0  0  0  0  0
   -0.4104   -1.0634    0.0000 C   0  0  0  0  0  0  0  0  0  0  0  0
   -1.0923   -0.6457    0.0000 C   0  0  0  0  0  0  0  0  0  0  0  0
   -1.7932   -1.0827    0.0000 C   0  0  0  0  0  0  0  0  0  0  0  0
   -2.5135   -0.6649    0.0000 C   0  0  0  0  0  0  0  0  0  0  0  0
   -3.2192   -1.0922    0.0000 C   0  0  0  0  0  0  0  0  0  0  0  0
   -3.9251   -0.6793    0.0000 C   0  0  0  0  0  0  0  0  0  0  0  0
   -8.8944   -1.1210    0.0000 C   0  0  0  0  0  0  0  0  0  0  0  0
    0.0000    0.0000    0.0000 H   0  0  0  0  0  0  0  0  0  0  0  0
    0.0000    0.0000    0.0000 H   0  0  0  0  0  0  0  0  0  0  0  0
    0.0000    0.0000    0.0000 H   0  0  0  0  0  0  0  0  0  0  0  0
    0.0000    0.0000    0.0000 H   0  0  0  0  0  0  0  0  0  0  0  0
    0.0000    0.0000    0.0000 H   0  0  0  0  0  0  0  0  0  0  0  0
    0.0000    0.0000    0.0000 H   0  0  0  0  0  0  0  0  0  0  0  0
    0.0000    0.0000    0.0000 H   0  0  0  0  0  0  0  0  0  0  0  0
    0.0000    0.0000    0.0000 H   0  0  0  0  0  0  0  0  0  0  0  0
    0.0000    0.0000    0.0000 H   0  0  0  0  0  0  0  0  0  0  0  0
    0.0000    0.0000    0.0000 H   0  0  0  0  0  0  0  0  0  0  0  0
    0.0000    0.0000    0.0000 H   0  0  0  0  0  0  0  0  0  0  0  0
    0.0000    0.0000    0.0000 H   0  0  0  0  0  0  0  0  0  0  0  0
    0.0000    0.0000    0.0000 H   0  0  0  0  0  0  0  0  0  0  0  0
    0.0000    0.0000    0.0000 H   0  0  0  0  0  0  0  0  0  0  0  0
    0.0000    0.0000    0.0000 H   0  0  0  0  0  0  0  0  0  0  0  0
    0.0000    0.0000    0.0000 H   0  0  0  0  0  0  0  0  0  0  0  0
    0.0000    0.0000    0.0000 H   0  0  0  0  0  0  0  0  0  0  0  0
    0.0000    0.0000    0.0000 H   0  0  0  0  0  0  0  0  0  0  0  0
    0.0000    0.0000    0.0000 H   0  0  0  0  0  0  0  0  0  0  0  0
    0.0000    0.0000    0.0000 H   0  0  0  0  0  0  0  0  0  0  0  0
    0.0000    0.0000    0.0000 H   0  0  0  0  0  0  0  0  0  0  0  0
    0.0000    0.0000    0.0000 H   0  0  0  0  0  0  0  0  0  0  0  0
    0.0000    0.0000    0.0000 H   0  0  0  0  0  0  0  0  0  0  0  0
    0.0000    0.0000    0.0000 H   0  0  0  0  0  0  0  0  0  0  0  0
    0.0000    0.0000    0.0000 H   0  0  0  0  0  0  0  0  0  0  0  0
    0.0000    0.0000    0.0000 H   0  0  0  0  0  0  0  0  0  0  0  0
    0.0000    0.0000    0.0000 H   0  0  0  0  0  0  0  0  0  0  0  0
    0.0000    0.0000    0.0000 H   0  0  0  0  0  0  0  0  0  0  0  0
    0.0000    0.0000    0.0000 H   0  0  0  0  0  0  0  0  0  0  0  0
    0.0000    0.0000    0.0000 H   0  0  0  0  0  0  0  0  0  0  0  0
    0.0000    0.0000    0.0000 H   0  0  0  0  0  0  0  0  0  0  0  0
    0.0000    0.0000    0.0000 H   0  0  0  0  0  0  0  0  0  0  0  0
    0.0000    0.0000    0.0000 H   0  0  0  0  0  0  0  0  0  0  0  0
    0.0000    0.0000    0.0000 H   0  0  0  0  0  0  0  0  0  0  0  0
    0.0000    0.0000    0.0000 H   0  0  0  0  0  0  0  0  0  0  0  0
    0.0000    0.0000    0.0000 H   0  0  0  0  0  0  0  0  0  0  0  0
    0.0000    0.0000    0.0000 H   0  0  0  0  0  0  0  0  0  0  0  0
    0.0000    0.0000    0.0000 H   0  0  0  0  0  0  0  0  0  0  0  0
    0.0000    0.0000    0.0000 H   0  0  0  0  0  0  0  0  0  0  0  0
    0.0000    0.0000    0.0000 H   0  0  0  0  0  0  0  0  0  0  0  0
    0.0000    0.0000    0.0000 H   0  0  0  0  0  0  0  0  0  0  0  0
    0.0000    0.0000    0.0000 H   0  0  0  0  0  0  0  0  0  0  0  0
    0.0000    0.0000    0.0000 H   0  0  0  0  0  0  0  0  0  0  0  0
    0.0000    0.0000    0.0000 H   0  0  0  0  0  0  0  0  0  0  0  0
    0.0000    0.0000    0.0000 H   0  0  0  0  0  0  0  0  0  0  0  0
    0.0000    0.0000    0.0000 H   0  0  0  0  0  0  0  0  0  0  0  0
    0.0000    0.0000    0.0000 H   0  0  0  0  0  0  0  0  0  0  0  0
    0.0000    0.0000    0.0000 H   0  0  0  0  0  0  0  0  0  0  0  0
    0.0000    0.0000    0.0000 H   0  0  0  0  0  0  0  0  0  0  0  0
    0.0000    0.0000    0.0000 H   0  0  0  0  0  0  0  0  0  0  0  0
    0.0000    0.0000    0.0000 H   0  0  0  0  0  0  0  0  0  0  0  0
    0.0000    0.0000    0.0000 H   0  0  0  0  0  0  0  0  0  0  0  0
    0.0000    0.0000    0.0000 H   0  0  0  0  0  0  0  0  0  0  0  0
    0.0000    0.0000    0.0000 H   0  0  0  0  0  0  0  0  0  0  0  0
    0.0000    0.0000    0.0000 H   0  0  0  0  0  0  0  0  0  0  0  0
  2  1  1  0
  3  1  2  0
  4  1  1  0
  5  8  1  0
  6  2  1  0
  7  2  1  0
  8  7  1  0
  9  6  1  0
 10 14  2  0
 11  9  2  0
 12  9  1  0
 13 12  2  0
 14 11  1  0
 15 17  1  0
 16 10  1  0
 17  4  2  0
 18  3  1  0
 19  5  1  0
 20  5  1  0
 21  5  1  0
 22 16  1  0
 23 19  1  0
 24 25  1  0
 25 29  1  0
 26 36  1  0
 27 26  1  0
 28 27  1  0
 29 28  1  0
 30 23  1  0
 31 30  1  0
 32 31  1  0
 33 32  1  0
 34 33  1  0
 35 34  1  0
 36 35  1  0
 37 24  1  0
 15 18  2  0
 10 13  1  0
  6 38  1  0
  6 39  1  0
  7 40  1  0
  7 41  1  0
  8 42  1  0
  8 43  1  0
 11 44  1  0
 12 45  1  0
 13 46  1  0
 14 47  1  0
 15 48  1  0
 17 49  1  0
 18 50  1  0
 19 51  1  0
 19 52  1  0
 20 53  1  0
 20 54  1  0
 20 55  1  0
 21 56  1  0
 21 57  1  0
 21 58  1  0
 22 59  1  0
 22 60  1  0
 22 61  1  0
 23 62  1  0
 23 63  1  0
 24 64  1  0
 24 65  1  0
 25 66  1  0
 25 67  1  0
 26 68  1  0
 26 69  1  0
 27 70  1  0
 27 71  1  0
 28 72  1  0
 28 73  1  0
 29 74  1  0
 29 75  1  0
 30 76  1  0
 30 77  1  0
 31 78  1  0
 31 79  1  0
 32 80  1  0
 32 81  1  0
 33 82  1  0
 33 83  1  0
 34 84  1  0
 34 85  1  0
 35 86  1  0
 35 87  1  0
 36 88  1  0
 36 89  1  0
 37 90  1  0
 37 91  1  0
 37 92  1  0
M  CHG  1   5   1
M  END
>  <ALOGPS_LOGP>  (1) 
4.07

>  <ALOGPS_LOGS>  (1) 
-7.48

>  <ALOGPS_SOLUBILITY>  (1) 
1.82e-05 g/l

>  <DATABASE_ID>  (1) 
DB09552

>  <DATABASE_NAME>  (1) 
drugbank

>  <DRUGBANK_ID>  (1) 
DB09552

>  <DRUG_GROUPS>  (1) 
approved

>  <EXACT_MASS>  (1) 
511.437038827

>  <FORMULA>  (1) 
C32H55N4O

>  <GENERIC_NAME>  (1) 
Thonzonium

>  <INCHI_IDENTIFIER>  (1) 
InChI=1S/C32H55N4O/c1-5-6-7-8-9-10-11-12-13-14-15-16-17-18-27-36(2,3)28-26-35(32-33-24-19-25-34-32)29-30-20-22-31(37-4)23-21-30/h19-25H,5-18,26-29H2,1-4H3/q+1

>  <INCHI_KEY>  (1) 
IOYZYMQFUSNATM-UHFFFAOYSA-N

>  <JCHEM_ACCEPTOR_COUNT>  (1) 
4

>  <JCHEM_ATOM_COUNT>  (1) 
92

>  <JCHEM_AVERAGE_POLARIZABILITY>  (1) 
66.43725765899552

>  <JCHEM_BIOAVAILABILITY>  (1) 
0

>  <JCHEM_DONOR_COUNT>  (1) 
0

>  <JCHEM_FORMAL_CHARGE>  (1) 
1

>  <JCHEM_GHOSE_FILTER>  (1) 
0

>  <JCHEM_IUPAC>  (1) 
hexadecyl(2-{[(4-methoxyphenyl)methyl](pyrimidin-2-yl)amino}ethyl)dimethylazanium

>  <JCHEM_LOGP>  (1) 
4.918398088861588

>  <JCHEM_MDDR_LIKE_RULE>  (1) 
0

>  <JCHEM_NUMBER_OF_RINGS>  (1) 
2

>  <JCHEM_PHYSIOLOGICAL_CHARGE>  (1) 
1

>  <JCHEM_PKA_STRONGEST_BASIC>  (1) 
3.1151103534727316

>  <JCHEM_POLAR_SURFACE_AREA>  (1) 
38.25

>  <JCHEM_REFRACTIVITY>  (1) 
171.191

>  <JCHEM_ROTATABLE_BOND_COUNT>  (1) 
22

>  <JCHEM_RULE_OF_FIVE>  (1) 
0

>  <JCHEM_TRADITIONAL_IUPAC>  (1) 
hexadecyl(2-{[(4-methoxyphenyl)methyl](pyrimidin-2-yl)amino}ethyl)dimethylazanium

>  <JCHEM_VEBER_RULE>  (1) 
0

>  <MOLECULAR_WEIGHT>  (1) 
511.818

>  <PRODUCTS>  (1) 
Coly-Mycin S; Cortisporin-TC

>  <SALTS>  (1) 
Thonzonium bromide

>  <SMILES>  (1) 
CCCCCCCCCCCCCCCC[N+](C)(C)CCN(CC1=CC=C(OC)C=C1)C1=NC=CC=N1

>  <SYNONYMS>  (1) 
Tonzonium

$$$$
