
     RDKit          2D

 58 61  0  0  1  0  0  0  0  0999 V2000
   -0.6077   10.9526    0.0000 C   0  0  0  0  0  0  0  0  0  0  0  0
    0.1067    9.7151    0.0000 C   0  0  0  0  0  0  0  0  0  0  0  0
    0.8211   13.4276    0.0000 C   0  0  0  0  0  0  0  0  0  0  0  0
   -1.3222   10.5401    0.0000 C   0  0  0  0  0  0  0  0  0  0  0  0
   -0.6077    9.3026    0.0000 C   0  0  0  0  0  0  0  0  0  0  0  0
    0.1067   13.0151    0.0000 C   0  0  0  0  0  0  0  0  0  0  0  0
   -2.7041    7.9927    0.0000 C   0  0  0  0  0  0  0  0  0  0  0  0
   -2.4492    7.2081    0.0000 C   0  0  0  0  0  0  0  0  0  0  0  0
    0.8211   10.9526    0.0000 C   0  0  0  0  0  0  0  0  0  0  0  0
    1.5356   12.1901    0.0000 C   0  0  0  0  0  0  0  0  0  0  0  0
    4.3935   13.0151    0.0000 C   0  0  0  0  0  0  0  0  0  0  0  0
   -1.3692    7.9927    0.0000 C   0  0  0  0  0  0  0  0  0  0  0  0
    0.1067   10.5401    0.0000 C   0  0  0  0  0  0  0  0  0  0  0  0
    1.5356   13.0151    0.0000 C   0  0  0  0  0  0  0  0  0  0  0  0
    0.8211   11.7776    0.0000 C   0  0  0  0  0  0  0  0  0  0  0  0
   -1.3222    9.7151    0.0000 C   0  0  0  0  0  0  0  0  0  0  0  0
   -2.0367    8.4776    0.0000 C   0  0  0  0  0  0  0  0  0  0  0  0
    0.1067   12.1901    0.0000 C   0  0  0  0  0  0  0  0  0  0  0  0
    3.6790   13.4276    0.0000 C   0  0  0  0  0  0  0  0  0  0  0  0
    3.6790   14.2526    0.0000 C   0  0  0  0  0  0  0  0  0  0  0  0
    2.9645   14.6651    0.0000 C   0  0  0  0  0  0  0  0  0  0  0  0
    2.2501   14.2526    0.0000 C   0  0  0  0  0  0  0  0  0  0  0  0
    2.2501   13.4276    0.0000 C   0  0  0  0  0  0  0  0  0  0  0  0
   -0.6077   11.7776    0.0000 Cl  0  0  0  0  0  0  0  0  0  0  0  0
    5.1080   13.4276    0.0000 O   0  0  0  0  0  0  0  0  0  0  0  0
    4.3935   14.6651    0.0000 O   0  0  0  0  0  0  0  0  0  0  0  0
    2.9645   15.4901    0.0000 O   0  0  0  0  0  0  0  0  0  0  0  0
    1.5356   14.6651    0.0000 O   0  0  0  0  0  0  0  0  0  0  0  0
   -1.6242    7.2081    0.0000 O   0  0  0  0  0  0  0  0  0  0  0  0
   -2.0367    9.3026    0.0000 O   0  0  0  0  0  0  0  0  0  0  0  0
    2.9645   13.0151    0.0000 O   0  0  0  0  0  0  0  0  0  0  0  0
    0.0000    0.0000    0.0000 H   0  0  0  0  0  0  0  0  0  0  0  0
    0.0000    0.0000    0.0000 H   0  0  0  0  0  0  0  0  0  0  0  0
    0.0000    0.0000    0.0000 H   0  0  0  0  0  0  0  0  0  0  0  0
    0.0000    0.0000    0.0000 H   0  0  0  0  0  0  0  0  0  0  0  0
    0.0000    0.0000    0.0000 H   0  0  0  0  0  0  0  0  0  0  0  0
    0.0000    0.0000    0.0000 H   0  0  0  0  0  0  0  0  0  0  0  0
    0.0000    0.0000    0.0000 H   0  0  0  0  0  0  0  0  0  0  0  0
    0.0000    0.0000    0.0000 H   0  0  0  0  0  0  0  0  0  0  0  0
    0.0000    0.0000    0.0000 H   0  0  0  0  0  0  0  0  0  0  0  0
    0.0000    0.0000    0.0000 H   0  0  0  0  0  0  0  0  0  0  0  0
    0.0000    0.0000    0.0000 H   0  0  0  0  0  0  0  0  0  0  0  0
    0.0000    0.0000    0.0000 H   0  0  0  0  0  0  0  0  0  0  0  0
    0.0000    0.0000    0.0000 H   0  0  0  0  0  0  0  0  0  0  0  0
    0.0000    0.0000    0.0000 H   0  0  0  0  0  0  0  0  0  0  0  0
    0.0000    0.0000    0.0000 H   0  0  0  0  0  0  0  0  0  0  0  0
    0.0000    0.0000    0.0000 H   0  0  0  0  0  0  0  0  0  0  0  0
    0.0000    0.0000    0.0000 H   0  0  0  0  0  0  0  0  0  0  0  0
    0.0000    0.0000    0.0000 H   0  0  0  0  0  0  0  0  0  0  0  0
    0.0000    0.0000    0.0000 H   0  0  0  0  0  0  0  0  0  0  0  0
    0.0000    0.0000    0.0000 H   0  0  0  0  0  0  0  0  0  0  0  0
    0.0000    0.0000    0.0000 H   0  0  0  0  0  0  0  0  0  0  0  0
    0.0000    0.0000    0.0000 H   0  0  0  0  0  0  0  0  0  0  0  0
    0.0000    0.0000    0.0000 H   0  0  0  0  0  0  0  0  0  0  0  0
    0.0000    0.0000    0.0000 H   0  0  0  0  0  0  0  0  0  0  0  0
    0.0000    0.0000    0.0000 H   0  0  0  0  0  0  0  0  0  0  0  0
    0.0000    0.0000    0.0000 H   0  0  0  0  0  0  0  0  0  0  0  0
    0.0000    0.0000    0.0000 H   0  0  0  0  0  0  0  0  0  0  0  0
  4  1  2  0
  5  2  1  0
  6  3  2  0
  8  7  1  0
 13  1  1  0
 13  2  2  0
 13  9  1  0
 14  3  1  0
 14 10  2  0
 15  9  1  0
 15 10  1  0
 16  4  1  0
 16  5  2  0
 17  7  1  0
 17 12  1  0
 18  6  1  0
 18 15  2  0
 19 11  1  1
 20 19  1  0
 21 20  1  0
 22 21  1  0
 23 14  1  1
 23 22  1  0
 24 18  1  0
 25 11  1  0
 20 26  1  1
 21 27  1  6
 22 28  1  6
 29  8  1  0
 29 12  1  0
 30 16  1  0
 17 30  1  1
 31 19  1  0
 31 23  1  0
  1 32  1  0
  2 33  1  0
  3 34  1  0
  4 35  1  0
  5 36  1  0
  6 37  1  0
  7 38  1  0
  7 39  1  0
  8 40  1  0
  8 41  1  0
  9 42  1  0
  9 43  1  0
 10 44  1  0
 11 45  1  0
 11 46  1  0
 12 47  1  0
 12 48  1  0
 17 49  1  0
 19 50  1  0
 20 51  1  0
 21 52  1  0
 22 53  1  0
 23 54  1  0
 25 55  1  0
 26 56  1  0
 27 57  1  0
 28 58  1  0
M  END
>  <ALOGPS_LOGP>  (1) 
1.79

>  <ALOGPS_LOGS>  (1) 
-3.61

>  <ALOGPS_SOLUBILITY>  (1) 
1.11e-01 g/l

>  <DATABASE_ID>  (1) 
DB09038

>  <DATABASE_NAME>  (1) 
drugbank

>  <DRUGBANK_ID>  (1) 
DB09038

>  <DRUG_GROUPS>  (1) 
approved

>  <EXACT_MASS>  (1) 
450.1445309

>  <FORMULA>  (1) 
C23H27ClO7

>  <GENERIC_NAME>  (1) 
Empagliflozin

>  <INCHI_IDENTIFIER>  (1) 
InChI=1S/C23H27ClO7/c24-18-6-3-14(23-22(28)21(27)20(26)19(11-25)31-23)10-15(18)9-13-1-4-16(5-2-13)30-17-7-8-29-12-17/h1-6,10,17,19-23,25-28H,7-9,11-12H2/t17-,19+,20+,21-,22+,23-/m0/s1

>  <INCHI_KEY>  (1) 
OBWASQILIWPZMG-QZMOQZSNSA-N

>  <JCHEM_ACCEPTOR_COUNT>  (1) 
7

>  <JCHEM_ATOM_COUNT>  (1) 
58

>  <JCHEM_AVERAGE_POLARIZABILITY>  (1) 
45.244920277263766

>  <JCHEM_BIOAVAILABILITY>  (1) 
1

>  <JCHEM_DONOR_COUNT>  (1) 
4

>  <JCHEM_FORMAL_CHARGE>  (1) 
0

>  <JCHEM_GHOSE_FILTER>  (1) 
1

>  <JCHEM_IUPAC>  (1) 
(2S,3R,4R,5S,6R)-2-[4-chloro-3-({4-[(3S)-oxolan-3-yloxy]phenyl}methyl)phenyl]-6-(hydroxymethyl)oxane-3,4,5-triol

>  <JCHEM_LOGP>  (1) 
1.6553187060000008

>  <JCHEM_MDDR_LIKE_RULE>  (1) 
1

>  <JCHEM_NUMBER_OF_RINGS>  (1) 
4

>  <JCHEM_PHYSIOLOGICAL_CHARGE>  (1) 
0

>  <JCHEM_PKA>  (1) 
13.456757206604877

>  <JCHEM_PKA_STRONGEST_ACIDIC>  (1) 
12.567882362588914

>  <JCHEM_PKA_STRONGEST_BASIC>  (1) 
-2.979190369034347

>  <JCHEM_POLAR_SURFACE_AREA>  (1) 
108.61000000000001

>  <JCHEM_REFRACTIVITY>  (1) 
113.79159999999996

>  <JCHEM_ROTATABLE_BOND_COUNT>  (1) 
6

>  <JCHEM_RULE_OF_FIVE>  (1) 
1

>  <JCHEM_TRADITIONAL_IUPAC>  (1) 
(2S,3R,4R,5S,6R)-2-[4-chloro-3-({4-[(3S)-oxolan-3-yloxy]phenyl}methyl)phenyl]-6-(hydroxymethyl)oxane-3,4,5-triol

>  <JCHEM_VEBER_RULE>  (1) 
0

>  <MOLECULAR_WEIGHT>  (1) 
450.91

>  <PRODUCTS>  (1) 
Glyxambi; Jardiance; Synjardy; Synjardy XR

>  <SMILES>  (1) 
[H][C@@]1(CCOC1)OC1=CC=C(CC2=C(Cl)C=CC(=C2)[C@]2([H])O[C@]([H])(CO)[C@@]([H])(O)[C@]([H])(O)[C@@]2([H])O)C=C1

>  <SYNONYMS>  (1) 
(1S)-1,5-anhydro-1-(4-chloro-3-{4-[(3S)-tetrahydrofuran-3-yloxy]benzyl}phenyl)-D-glucitol; 1-chloro-4-(glucopyranos-1-yl)-2-(4-(tetrahydrofuran-3-yloxy)benzyl)benzene

$$$$
