
     RDKit          2D

 21 17  0  0  0  0  0  0  0  0999 V2000
   -0.0473   -0.5472    0.0000 C   0  0  0  0  0  0  0  0  0  0  0  0
   -0.7628   -0.9576    0.0000 C   0  0  0  0  0  0  0  0  0  0  0  0
   -1.4785   -0.5472    0.0000 C   0  0  0  0  0  0  0  0  0  0  0  0
   -0.0473    0.2789    0.0000 C   0  0  0  0  0  0  0  0  0  0  0  0
    0.6682   -0.9576    0.0000 C   0  0  0  0  0  0  0  0  0  0  0  0
    1.3838   -0.5472    0.0000 C   0  0  0  0  0  0  0  0  0  0  0  0
   -0.0473   -1.3732    0.0000 O   0  0  0  0  0  0  0  0  0  0  0  0
   -1.4785    0.2789    0.0000 O   0  0  0  0  0  0  0  0  0  0  0  0
   -2.1993   -0.9576    0.0000 O   0  0  0  0  0  0  0  0  0  0  0  0
    1.3838    0.2789    0.0000 O   0  0  0  0  0  0  0  0  0  0  0  0
    2.0993   -0.9576    0.0000 O   0  0  0  0  0  0  0  0  0  0  0  0
   -0.7628    0.6945    0.0000 O   0  0  0  0  0  0  0  0  0  0  0  0
    0.6682    0.6945    0.0000 O   0  0  0  0  0  0  0  0  0  0  0  0
    2.6308    0.1420    0.0000 K   0  0  0  0  0  0  0  0  0  0  0  0
    0.0105    1.3732    0.0000 K   0  0  0  0  0  0  0  0  0  0  0  0
   -2.6308    0.1473    0.0000 K   0  0  0  0  0  0  0  0  0  0  0  0
    0.0000    0.0000    0.0000 H   0  0  0  0  0  0  0  0  0  0  0  0
    0.0000    0.0000    0.0000 H   0  0  0  0  0  0  0  0  0  0  0  0
    0.0000    0.0000    0.0000 H   0  0  0  0  0  0  0  0  0  0  0  0
    0.0000    0.0000    0.0000 H   0  0  0  0  0  0  0  0  0  0  0  0
    0.0000    0.0000    0.0000 H   0  0  0  0  0  0  0  0  0  0  0  0
  1  5  1  0
  1  7  1  0
  1  2  1  0
  1  4  1  0
  2  3  1  0
  3  9  1  0
  3  8  2  0
  4 12  1  0
  4 13  2  0
  5  6  1  0
  6 11  1  0
  6 10  2  0
  2 17  1  0
  2 18  1  0
  5 19  1  0
  5 20  1  0
  7 21  1  0
M  CHG  6   9  -1  11  -1  12  -1  14   1  15   1  16   1
M  END
>  <ALOGPS_LOGP>  (1) 
-0.70

>  <ALOGPS_LOGS>  (1) 
-0.89

>  <ALOGPS_SOLUBILITY>  (1) 
3.94e+01 g/l

>  <DATABASE_ID>  (1) 
DB09125

>  <DATABASE_NAME>  (1) 
drugbank

>  <DRUGBANK_ID>  (1) 
DB09125

>  <DRUG_GROUPS>  (1) 
approved; vet_approved

>  <EXACT_MASS>  (1) 
305.89464697

>  <FORMULA>  (1) 
C6H5K3O7

>  <GENERIC_NAME>  (1) 
Potassium Citrate

>  <INCHI_IDENTIFIER>  (1) 
InChI=1S/C6H8O7.3K/c7-3(8)1-6(13,5(11)12)2-4(9)10;;;/h13H,1-2H2,(H,7,8)(H,9,10)(H,11,12);;;/q;3*+1/p-3

>  <INCHI_KEY>  (1) 
QEEAPRPFLLJWCF-UHFFFAOYSA-K

>  <JCHEM_ACCEPTOR_COUNT>  (1) 
7

>  <JCHEM_ATOM_COUNT>  (1) 
21

>  <JCHEM_AVERAGE_POLARIZABILITY>  (1) 
14.232174487173907

>  <JCHEM_BIOAVAILABILITY>  (1) 
1

>  <JCHEM_DONOR_COUNT>  (1) 
1

>  <JCHEM_FORMAL_CHARGE>  (1) 
0

>  <JCHEM_GHOSE_FILTER>  (1) 
0

>  <JCHEM_IUPAC>  (1) 
tripotassium 2-hydroxypropane-1,2,3-tricarboxylate

>  <JCHEM_LOGP>  (1) 
-1.3226874519999998

>  <JCHEM_MDDR_LIKE_RULE>  (1) 
0

>  <JCHEM_NUMBER_OF_RINGS>  (1) 
0

>  <JCHEM_PHYSIOLOGICAL_CHARGE>  (1) 
-3

>  <JCHEM_PKA>  (1) 
4.674836176324002

>  <JCHEM_PKA_STRONGEST_ACIDIC>  (1) 
3.0479515131680714

>  <JCHEM_PKA_STRONGEST_BASIC>  (1) 
-4.185693450231931

>  <JCHEM_POLAR_SURFACE_AREA>  (1) 
140.62

>  <JCHEM_REFRACTIVITY>  (1) 
68.1352

>  <JCHEM_ROTATABLE_BOND_COUNT>  (1) 
5

>  <JCHEM_RULE_OF_FIVE>  (1) 
1

>  <JCHEM_TRADITIONAL_IUPAC>  (1) 
tripotassium citrate

>  <JCHEM_VEBER_RULE>  (1) 
0

>  <MOLECULAR_WEIGHT>  (1) 
306.394

>  <PRODUCTS>  (1) 
B6 Plus Tab; Cytra-K Crystals; Formula No. 2 Plus K Liq; Lytren; Lytren Rhs Liq; Potassium Citrate; Potassium Citrate Citric Acid Crystals; Potassium Citrate Extended Release; Potassium Citrate and Citric Acid; Potassium Citrate-Citric Acid; Potassium Citrate-Sodium Citrate-Citric Acid; Rehydralyte; Tricitrates; Urocit K; Urocit-K

>  <SMILES>  (1) 
[K+].[K+].[K+].OC(CC([O-])=O)(CC([O-])=O)C([O-])=O

>  <SYNONYMS>  (1) 
tripotassium citrate

$$$$
