
     RDKit          2D

 32 32  0  0  0  0  0  0  0  0999 V2000
    2.5006   -2.4750    0.0000 C   0  0  0  0  0  0  0  0  0  0  0  0
    1.0717   -2.4750    0.0000 C   0  0  0  0  0  0  0  0  0  0  0  0
   -0.3572    1.6500    0.0000 C   0  0  0  0  0  0  0  0  0  0  0  0
   -1.0717    1.2375    0.0000 C   0  0  0  0  0  0  0  0  0  0  0  0
    1.7861    1.2375    0.0000 C   0  0  0  0  0  0  0  0  0  0  0  0
    1.7861   -1.2375    0.0000 C   0  0  0  0  0  0  0  0  0  0  0  0
    0.3572    1.2375    0.0000 C   0  0  0  0  0  0  0  0  0  0  0  0
    1.0717    1.6500    0.0000 C   0  0  0  0  0  0  0  0  0  0  0  0
    1.7861    0.4125    0.0000 C   0  0  0  0  0  0  0  0  0  0  0  0
   -1.7861    1.6500    0.0000 C   0  0  0  0  0  0  0  0  0  0  0  0
    0.3572    0.4125    0.0000 C   0  0  0  0  0  0  0  0  0  0  0  0
    1.0717    0.0000    0.0000 C   0  0  0  0  0  0  0  0  0  0  0  0
    1.0717    2.4750    0.0000 I   0  0  0  0  0  0  0  0  0  0  0  0
    2.5006    0.0000    0.0000 I   0  0  0  0  0  0  0  0  0  0  0  0
   -0.3572    0.0000    0.0000 I   0  0  0  0  0  0  0  0  0  0  0  0
    1.0717   -0.8250    0.0000 N   0  0  0  0  0  0  0  0  0  0  0  0
    1.7861   -2.0625    0.0000 N   0  0  0  0  0  0  0  0  0  0  0  0
   -2.5006    1.2375    0.0000 O   0  0  0  0  0  0  0  0  0  0  0  0
   -1.7861    2.4750    0.0000 O   0  0  0  0  0  0  0  0  0  0  0  0
    0.0000    0.0000    0.0000 H   0  0  0  0  0  0  0  0  0  0  0  0
    0.0000    0.0000    0.0000 H   0  0  0  0  0  0  0  0  0  0  0  0
    0.0000    0.0000    0.0000 H   0  0  0  0  0  0  0  0  0  0  0  0
    0.0000    0.0000    0.0000 H   0  0  0  0  0  0  0  0  0  0  0  0
    0.0000    0.0000    0.0000 H   0  0  0  0  0  0  0  0  0  0  0  0
    0.0000    0.0000    0.0000 H   0  0  0  0  0  0  0  0  0  0  0  0
    0.0000    0.0000    0.0000 H   0  0  0  0  0  0  0  0  0  0  0  0
    0.0000    0.0000    0.0000 H   0  0  0  0  0  0  0  0  0  0  0  0
    0.0000    0.0000    0.0000 H   0  0  0  0  0  0  0  0  0  0  0  0
    0.0000    0.0000    0.0000 H   0  0  0  0  0  0  0  0  0  0  0  0
    0.0000    0.0000    0.0000 H   0  0  0  0  0  0  0  0  0  0  0  0
    0.0000    0.0000    0.0000 H   0  0  0  0  0  0  0  0  0  0  0  0
    0.0000    0.0000    0.0000 H   0  0  0  0  0  0  0  0  0  0  0  0
  4  3  1  0
  7  3  1  0
  8  5  2  0
  8  7  1  0
  9  5  1  0
 10  4  1  0
 11  7  2  0
 12  9  2  0
 12 11  1  0
 13  8  1  0
 14  9  1  0
 15 11  1  0
 16  6  2  3
 16 12  1  0
 17  1  1  0
 17  2  1  0
 17  6  1  0
 18 10  2  0
 19 10  1  0
  1 20  1  0
  1 21  1  0
  1 22  1  0
  2 23  1  0
  2 24  1  0
  2 25  1  0
  3 26  1  0
  3 27  1  0
  4 28  1  0
  4 29  1  0
  5 30  1  0
  6 31  1  0
 19 32  1  0
M  END
>  <ALOGPS_LOGP>  (1) 
3.59

>  <ALOGPS_LOGS>  (1) 
-4.86

>  <ALOGPS_SOLUBILITY>  (1) 
8.19e-03 g/l

>  <DATABASE_ID>  (1) 
DB09333

>  <DATABASE_NAME>  (1) 
drugbank

>  <DRUGBANK_ID>  (1) 
DB09333

>  <DRUG_GROUPS>  (1) 
approved

>  <EXACT_MASS>  (1) 
597.81111

>  <FORMULA>  (1) 
C12H13I3N2O2

>  <GENERIC_NAME>  (1) 
Iopodic acid

>  <INCHI_IDENTIFIER>  (1) 
InChI=1S/C12H13I3N2O2/c1-17(2)6-16-12-9(14)5-8(13)7(11(12)15)3-4-10(18)19/h5-6H,3-4H2,1-2H3,(H,18,19)

>  <INCHI_KEY>  (1) 
YQNFBOJPTAXAKV-UHFFFAOYSA-N

>  <JCHEM_ACCEPTOR_COUNT>  (1) 
4

>  <JCHEM_ATOM_COUNT>  (1) 
32

>  <JCHEM_AVERAGE_POLARIZABILITY>  (1) 
40.232829260324706

>  <JCHEM_BIOAVAILABILITY>  (1) 
1

>  <JCHEM_DONOR_COUNT>  (1) 
1

>  <JCHEM_FORMAL_CHARGE>  (1) 
0

>  <JCHEM_GHOSE_FILTER>  (1) 
0

>  <JCHEM_IUPAC>  (1) 
3-(3-{[(dimethylamino)methylidene]amino}-2,4,6-triiodophenyl)propanoic acid

>  <JCHEM_LOGP>  (1) 
3.4028894464952644

>  <JCHEM_MDDR_LIKE_RULE>  (1) 
0

>  <JCHEM_NUMBER_OF_RINGS>  (1) 
1

>  <JCHEM_PHYSIOLOGICAL_CHARGE>  (1) 
-1

>  <JCHEM_PKA_STRONGEST_ACIDIC>  (1) 
1.9857010540379192

>  <JCHEM_PKA_STRONGEST_BASIC>  (1) 
4.155761856904471

>  <JCHEM_POLAR_SURFACE_AREA>  (1) 
52.900000000000006

>  <JCHEM_REFRACTIVITY>  (1) 
104.90850000000002

>  <JCHEM_ROTATABLE_BOND_COUNT>  (1) 
4

>  <JCHEM_RULE_OF_FIVE>  (1) 
0

>  <JCHEM_TRADITIONAL_IUPAC>  (1) 
ipodate sodium

>  <JCHEM_VEBER_RULE>  (1) 
0

>  <MOLECULAR_WEIGHT>  (1) 
597.961

>  <PRODUCTS>  (1) 
Oragrafin Sodium 0.5gm

>  <SALTS>  (1) 
Ipodate calcium; Ipodate sodium

>  <SMILES>  (1) 
CN(C)C=NC1=C(I)C=C(I)C(CCC(O)=O)=C1I

>  <SYNONYMS>  (1) 
Ipodate

$$$$
