
     RDKit          2D

  4  3  0  0  0  0  0  0  0  0999 V2000
    0.6187    0.7145    0.0000 Cl  0  0  0  0  0  0  0  0  0  0  0  0
    0.2062    0.0000    0.0000 In  0  0  0  0  0  0  0  0  0  0  0  0
    0.6187   -0.7145    0.0000 Cl  0  0  0  0  0  0  0  0  0  0  0  0
   -0.6187    0.0000    0.0000 Cl  0  0  0  0  0  0  0  0  0  0  0  0
  1  2  1  0
  2  3  1  0
  2  4  1  0
M  ISO  1   2 111
M  END
>  <ALOGPS_LOGP>  (1) 
1.69

>  <ALOGPS_LOGS>  (1) 
-0.91

>  <ALOGPS_SOLUBILITY>  (1) 
2.74e+01 g/l

>  <DATABASE_ID>  (1) 
DB09490

>  <DATABASE_NAME>  (1) 
drugbank

>  <DRUGBANK_ID>  (1) 
DB09490

>  <DRUG_GROUPS>  (1) 
approved

>  <EXACT_MASS>  (1) 
215.8116688

>  <FORMULA>  (1) 
Cl3In

>  <GENERIC_NAME>  (1) 
Indium In-111 chloride

>  <INCHI_IDENTIFIER>  (1) 
InChI=1S/3ClH.In/h3*1H;/q;;;+3/p-3/i;;;1-4

>  <INCHI_KEY>  (1) 
PSCMQHVBLHHWTO-FZTWWWDYSA-K

>  <JCHEM_ACCEPTOR_COUNT>  (1) 
0

>  <JCHEM_ATOM_COUNT>  (1) 
4

>  <JCHEM_AVERAGE_POLARIZABILITY>  (1) 
9.871430318393587

>  <JCHEM_BIOAVAILABILITY>  (1) 
1

>  <JCHEM_DONOR_COUNT>  (1) 
0

>  <JCHEM_FORMAL_CHARGE>  (1) 
0

>  <JCHEM_GHOSE_FILTER>  (1) 
0

>  <JCHEM_IUPAC>  (1) 
trichloro(¹¹¹In)indigane

>  <JCHEM_LOGP>  (1) 
1.9034999999999995

>  <JCHEM_MDDR_LIKE_RULE>  (1) 
0

>  <JCHEM_NUMBER_OF_RINGS>  (1) 
0

>  <JCHEM_PHYSIOLOGICAL_CHARGE>  (1) 
0

>  <JCHEM_POLAR_SURFACE_AREA>  (1) 
0.0

>  <JCHEM_REFRACTIVITY>  (1) 
18.408900000000003

>  <JCHEM_ROTATABLE_BOND_COUNT>  (1) 
0

>  <JCHEM_RULE_OF_FIVE>  (1) 
1

>  <JCHEM_TRADITIONAL_IUPAC>  (1) 
trichloro(¹¹¹In)indigane

>  <JCHEM_VEBER_RULE>  (1) 
1

>  <MOLECULAR_WEIGHT>  (1) 
217.26

>  <PRODUCTS>  (1) 
Indiclor; Indium In 111 Chloride

>  <SMILES>  (1) 
Cl[111In](Cl)Cl

>  <SYNONYMS>  (1) 
111indium trichloride; Indium chloride (111incl3); Indium chloride In-111; Indium In 111 chloride; Indium In 111m chloride; Indium In-111m chloride; Indium-111 chloride

$$$$
