
     RDKit          2D

  8  7  0  0  0  0  0  0  0  0999 V2000
    0.8251    0.0000    0.0000 C   0  0  0  0  0  0  0  0  0  0  0  0
    1.2376    0.7145    0.0000 N   0  0  0  0  0  0  0  0  0  0  0  0
    1.2376   -0.7145    0.0000 N   0  0  0  0  0  0  0  0  0  0  0  0
    0.0000    0.0000    0.0000 O   0  0  0  0  0  0  0  0  0  0  0  0
    0.0000    0.0000    0.0000 H   0  0  0  0  0  0  0  0  0  0  0  0
    0.0000    0.0000    0.0000 H   0  0  0  0  0  0  0  0  0  0  0  0
    0.0000    0.0000    0.0000 H   0  0  0  0  0  0  0  0  0  0  0  0
    0.0000    0.0000    0.0000 H   0  0  0  0  0  0  0  0  0  0  0  0
  2  1  2  3
  3  1  1  0
  4  1  1  0
  2  5  1  0
  3  6  1  0
  3  7  1  0
  4  8  1  0
M  ISO  1   1  13
M  END
>  <ALOGPS_LOGP>  (1) 
-1.50

>  <ALOGPS_LOGS>  (1) 
-0.71

>  <ALOGPS_SOLUBILITY>  (1) 
1.18e+01 g/l

>  <DATABASE_ID>  (1) 
DB09510

>  <DATABASE_NAME>  (1) 
drugbank

>  <DRUGBANK_ID>  (1) 
DB09510

>  <DRUG_GROUPS>  (1) 
approved

>  <EXACT_MASS>  (1) 
61.035717592

>  <FORMULA>  (1) 
CH4N2O

>  <GENERIC_NAME>  (1) 
Urea C-13

>  <INCHI_IDENTIFIER>  (1) 
InChI=1S/CH4N2O/c2-1(3)4/h(H4,2,3,4)/i1+1

>  <INCHI_KEY>  (1) 
XSQUKJJJFZCRTK-OUBTZVSYSA-N

>  <JCHEM_ACCEPTOR_COUNT>  (1) 
3

>  <JCHEM_ATOM_COUNT>  (1) 
8

>  <JCHEM_AVERAGE_POLARIZABILITY>  (1) 
5.128127305537371

>  <JCHEM_BIOAVAILABILITY>  (1) 
1

>  <JCHEM_DONOR_COUNT>  (1) 
3

>  <JCHEM_FORMAL_CHARGE>  (1) 
0

>  <JCHEM_GHOSE_FILTER>  (1) 
0

>  <JCHEM_IUPAC>  (1) 
(13C)carbamimidic acid

>  <JCHEM_LOGP>  (1) 
-2.1319894966808257

>  <JCHEM_MDDR_LIKE_RULE>  (1) 
0

>  <JCHEM_NUMBER_OF_RINGS>  (1) 
0

>  <JCHEM_PHYSIOLOGICAL_CHARGE>  (1) 
0

>  <JCHEM_PKA_STRONGEST_ACIDIC>  (1) 
0.5521526267772052

>  <JCHEM_PKA_STRONGEST_BASIC>  (1) 
15.000000000727663

>  <JCHEM_POLAR_SURFACE_AREA>  (1) 
70.10000000000001

>  <JCHEM_REFRACTIVITY>  (1) 
24.2013

>  <JCHEM_ROTATABLE_BOND_COUNT>  (1) 
0

>  <JCHEM_RULE_OF_FIVE>  (1) 
1

>  <JCHEM_TRADITIONAL_IUPAC>  (1) 
(13C)carbamimidic acid

>  <JCHEM_VEBER_RULE>  (1) 
0

>  <MOLECULAR_WEIGHT>  (1) 
61.048

>  <PRODUCTS>  (1) 
Helicobacter TestInfai; Helicobacter TestInfai for ChildrenOf The Age 3-11; Pranactin-Citric; Pylobactell

>  <SMILES>  (1) 
N[13C](O)=N

>  <SYNONYMS>  (1) 
(13C)urea; 13C-urea; Carbon 13 urea; Carbon-13 urea; Urea (13C); Urea 13 C; Urea C 13; Urea-13C; Urea, C-13

$$$$
