
     RDKit          2D

 62 65  0  0  0  0  0  0  0  0999 V2000
   -2.8878    1.0313    0.0000 C   0  0  0  0  0  0  0  0  0  0  0  0
   -2.8878    1.8564    0.0000 C   0  0  0  0  0  0  0  0  0  0  0  0
   -2.1865    2.2690    0.0000 C   0  0  0  0  0  0  0  0  0  0  0  0
   -1.4439    1.8564    0.0000 C   0  0  0  0  0  0  0  0  0  0  0  0
   -1.4439    1.0313    0.0000 C   0  0  0  0  0  0  0  0  0  0  0  0
   -2.1865    0.6188    0.0000 C   0  0  0  0  0  0  0  0  0  0  0  0
   -0.7425    2.2690    0.0000 C   0  0  0  0  0  0  0  0  0  0  0  0
   -0.0412    1.8564    0.0000 C   0  0  0  0  0  0  0  0  0  0  0  0
   -0.0412    1.0313    0.0000 C   0  0  0  0  0  0  0  0  0  0  0  0
   -0.7425    0.6188    0.0000 C   0  0  0  0  0  0  0  0  0  0  0  0
    0.6601    0.6188    0.0000 C   0  0  0  0  0  0  0  0  0  0  0  0
    1.3614    1.0313    0.0000 C   0  0  0  0  0  0  0  0  0  0  0  0
    2.1040    0.6188    0.0000 C   0  0  0  0  0  0  0  0  0  0  0  0
    2.1040   -0.2062    0.0000 C   0  0  0  0  0  0  0  0  0  0  0  0
    1.4027   -0.6188    0.0000 C   0  0  0  0  0  0  0  0  0  0  0  0
    0.6601   -0.2062    0.0000 C   0  0  0  0  0  0  0  0  0  0  0  0
   -0.0412   -0.6188    0.0000 O   0  0  0  0  0  0  0  0  0  0  0  0
   -0.7425   -0.2062    0.0000 C   0  0  0  0  0  0  0  0  0  0  0  0
    1.4027   -1.4439    0.0000 C   0  0  0  0  0  0  0  0  0  0  0  0
    2.8053    1.0313    0.0000 N   0  0  0  0  0  0  0  0  0  0  0  0
    2.8053    1.8564    0.0000 C   0  0  0  0  0  0  0  0  0  0  0  0
    3.5479    2.2690    0.0000 C   0  0  0  0  0  0  0  0  0  0  0  0
    4.2492    1.8564    0.0000 C   0  0  0  0  0  0  0  0  0  0  0  0
    4.2492    1.0313    0.0000 N   0  0  0  0  0  0  0  0  0  0  0  0
    3.5479    0.6188    0.0000 C   0  0  0  0  0  0  0  0  0  0  0  0
    4.9918    2.2690    0.0000 O   0  0  0  0  0  0  0  0  0  0  0  0
    3.5479   -0.2062    0.0000 O   0  0  0  0  0  0  0  0  0  0  0  0
   -3.5891    2.2690    0.0000 N   0  0  0  0  0  0  0  0  0  0  0  0
   -4.2904    1.8564    0.0000 S   0  0  0  0  0  0  0  0  0  0  0  0
   -4.9918    2.2690    0.0000 C   0  0  0  0  0  0  0  0  0  0  0  0
   -4.7030    1.1138    0.0000 O   0  0  0  0  0  0  0  0  0  0  0  0
   -3.8779    1.1138    0.0000 O   0  0  0  0  0  0  0  0  0  0  0  0
    0.6881   -1.8564    0.0000 C   0  0  0  0  0  0  0  0  0  0  0  0
    2.1172   -1.8564    0.0000 C   0  0  0  0  0  0  0  0  0  0  0  0
    1.4027   -2.2690    0.0000 C   0  0  0  0  0  0  0  0  0  0  0  0
    0.0000    0.0000    0.0000 H   0  0  0  0  0  0  0  0  0  0  0  0
    0.0000    0.0000    0.0000 H   0  0  0  0  0  0  0  0  0  0  0  0
    0.0000    0.0000    0.0000 H   0  0  0  0  0  0  0  0  0  0  0  0
    0.0000    0.0000    0.0000 H   0  0  0  0  0  0  0  0  0  0  0  0
    0.0000    0.0000    0.0000 H   0  0  0  0  0  0  0  0  0  0  0  0
    0.0000    0.0000    0.0000 H   0  0  0  0  0  0  0  0  0  0  0  0
    0.0000    0.0000    0.0000 H   0  0  0  0  0  0  0  0  0  0  0  0
    0.0000    0.0000    0.0000 H   0  0  0  0  0  0  0  0  0  0  0  0
    0.0000    0.0000    0.0000 H   0  0  0  0  0  0  0  0  0  0  0  0
    0.0000    0.0000    0.0000 H   0  0  0  0  0  0  0  0  0  0  0  0
    0.0000    0.0000    0.0000 H   0  0  0  0  0  0  0  0  0  0  0  0
    0.0000    0.0000    0.0000 H   0  0  0  0  0  0  0  0  0  0  0  0
    0.0000    0.0000    0.0000 H   0  0  0  0  0  0  0  0  0  0  0  0
    0.0000    0.0000    0.0000 H   0  0  0  0  0  0  0  0  0  0  0  0
    0.0000    0.0000    0.0000 H   0  0  0  0  0  0  0  0  0  0  0  0
    0.0000    0.0000    0.0000 H   0  0  0  0  0  0  0  0  0  0  0  0
    0.0000    0.0000    0.0000 H   0  0  0  0  0  0  0  0  0  0  0  0
    0.0000    0.0000    0.0000 H   0  0  0  0  0  0  0  0  0  0  0  0
    0.0000    0.0000    0.0000 H   0  0  0  0  0  0  0  0  0  0  0  0
    0.0000    0.0000    0.0000 H   0  0  0  0  0  0  0  0  0  0  0  0
    0.0000    0.0000    0.0000 H   0  0  0  0  0  0  0  0  0  0  0  0
    0.0000    0.0000    0.0000 H   0  0  0  0  0  0  0  0  0  0  0  0
    0.0000    0.0000    0.0000 H   0  0  0  0  0  0  0  0  0  0  0  0
    0.0000    0.0000    0.0000 H   0  0  0  0  0  0  0  0  0  0  0  0
    0.0000    0.0000    0.0000 H   0  0  0  0  0  0  0  0  0  0  0  0
    0.0000    0.0000    0.0000 H   0  0  0  0  0  0  0  0  0  0  0  0
    0.0000    0.0000    0.0000 H   0  0  0  0  0  0  0  0  0  0  0  0
  1  2  2  0
  2  3  1  0
  3  4  2  0
  4  5  1  0
  5  6  2  0
  1  6  1  0
  4  7  1  0
  7  8  2  0
  8  9  1  0
  9 10  2  0
  5 10  1  0
  9 11  1  0
 11 12  2  0
 12 13  1  0
 13 14  2  0
 14 15  1  0
 15 16  2  0
 11 16  1  0
 16 17  1  0
 17 18  1  0
 15 19  1  0
 13 20  1  0
 20 21  1  0
 21 22  2  0
 22 23  1  0
 23 24  1  0
 24 25  1  0
 20 25  1  0
 23 26  2  0
 25 27  2  0
  2 28  1  0
 28 29  1  0
 29 30  1  0
 29 31  2  0
 29 32  2  0
 19 33  1  0
 19 34  1  0
 19 35  1  0
  1 36  1  0
  3 37  1  0
  6 38  1  0
  7 39  1  0
  8 40  1  0
 10 41  1  0
 12 42  1  0
 14 43  1  0
 18 44  1  0
 18 45  1  0
 18 46  1  0
 21 47  1  0
 22 48  1  0
 24 49  1  0
 28 50  1  0
 30 51  1  0
 30 52  1  0
 30 53  1  0
 33 54  1  0
 33 55  1  0
 33 56  1  0
 34 57  1  0
 34 58  1  0
 34 59  1  0
 35 60  1  0
 35 61  1  0
 35 62  1  0
M  END
>  <ALOGPS_LOGP>  (1) 
4.70

>  <ALOGPS_LOGS>  (1) 
-5.79

>  <ALOGPS_SOLUBILITY>  (1) 
7.99e-04 g/l

>  <DATABASE_ID>  (1) 
DB09183

>  <DATABASE_NAME>  (1) 
drugbank

>  <DRUGBANK_ID>  (1) 
DB09183

>  <DRUG_GROUPS>  (1) 
approved

>  <EXACT_MASS>  (1) 
493.167142155

>  <FORMULA>  (1) 
C26H27N3O5S

>  <GENERIC_NAME>  (1) 
Dasabuvir

>  <INCHI_IDENTIFIER>  (1) 
InChI=1S/C26H27N3O5S/c1-26(2,3)22-15-20(29-11-10-23(30)27-25(29)31)14-21(24(22)34-4)18-7-6-17-13-19(28-35(5,32)33)9-8-16(17)12-18/h6-15,28H,1-5H3,(H,27,30,31)

>  <INCHI_KEY>  (1) 
NBRBXGKOEOGLOI-UHFFFAOYSA-N

>  <JCHEM_ACCEPTOR_COUNT>  (1) 
5

>  <JCHEM_ATOM_COUNT>  (1) 
62

>  <JCHEM_AVERAGE_POLARIZABILITY>  (1) 
53.18662768621272

>  <JCHEM_BIOAVAILABILITY>  (1) 
1

>  <JCHEM_DONOR_COUNT>  (1) 
2

>  <JCHEM_FORMAL_CHARGE>  (1) 
0

>  <JCHEM_GHOSE_FILTER>  (1) 
0

>  <JCHEM_IUPAC>  (1) 
N-{6-[3-tert-butyl-5-(2,4-dioxo-1,2,3,4-tetrahydropyrimidin-1-yl)-2-methoxyphenyl]naphthalen-2-yl}methanesulfonamide

>  <JCHEM_LOGP>  (1) 
3.423569820333332

>  <JCHEM_MDDR_LIKE_RULE>  (1) 
0

>  <JCHEM_NUMBER_OF_RINGS>  (1) 
4

>  <JCHEM_PHYSIOLOGICAL_CHARGE>  (1) 
0

>  <JCHEM_PKA>  (1) 
9.785210072487475

>  <JCHEM_PKA_STRONGEST_ACIDIC>  (1) 
9.086756190176981

>  <JCHEM_PKA_STRONGEST_BASIC>  (1) 
-4.829248332050629

>  <JCHEM_POLAR_SURFACE_AREA>  (1) 
104.81

>  <JCHEM_REFRACTIVITY>  (1) 
134.04229999999995

>  <JCHEM_ROTATABLE_BOND_COUNT>  (1) 
5

>  <JCHEM_RULE_OF_FIVE>  (1) 
1

>  <JCHEM_TRADITIONAL_IUPAC>  (1) 
N-{6-[3-tert-butyl-5-(2,4-dioxo-3H-pyrimidin-1-yl)-2-methoxyphenyl]naphthalen-2-yl}methanesulfonamide

>  <JCHEM_VEBER_RULE>  (1) 
0

>  <MOLECULAR_WEIGHT>  (1) 
493.58

>  <PRODUCTS>  (1) 
Exviera; Holkira Pak; Viekira Pak; Viekira XR

>  <SALTS>  (1) 
Dasabuvir sodium

>  <SMILES>  (1) 
COC1=C(C=C(C=C1C1=CC2=CC=C(NS(C)(=O)=O)C=C2C=C1)N1C=CC(=O)NC1=O)C(C)(C)C

>  <SYNONYMS>  (1) 
 Sodium 3-(3-tert-butyl-4-methoxy-5-{6Â­ [(methylsulfonyl)amino]naphthalene-2-yl}phenyl)-2,6-dioxo-3,6-dihydro-2H-pyrimidin-1-ide hydrate (1:1:1); N-{6-[3-tert-butyl-5-(2,4-dioxo-3,4-dihydropyrimidin-1(2H)-yl)-2-methoxyphenyl]naphthalen-2-yl}methanesulfonamide

$$$$
