
     RDKit          2D

 46 48  0  0  0  0  0  0  0  0999 V2000
   -6.4302    3.7125    0.0000 C   0  0  0  0  0  0  0  0  0  0  0  0
    2.1434    3.7125    0.0000 C   0  0  0  0  0  0  0  0  0  0  0  0
   -2.8578    0.0000    0.0000 C   0  0  0  0  0  0  0  0  0  0  0  0
   -2.1434   -0.4125    0.0000 C   0  0  0  0  0  0  0  0  0  0  0  0
   -2.8578    0.8250    0.0000 C   0  0  0  0  0  0  0  0  0  0  0  0
   -2.8578    3.3000    0.0000 C   0  0  0  0  0  0  0  0  0  0  0  0
   -3.5723    2.0625    0.0000 C   0  0  0  0  0  0  0  0  0  0  0  0
   -0.7144    2.0625    0.0000 C   0  0  0  0  0  0  0  0  0  0  0  0
   -1.4289    3.3000    0.0000 C   0  0  0  0  0  0  0  0  0  0  0  0
   -3.5723    3.7125    0.0000 C   0  0  0  0  0  0  0  0  0  0  0  0
   -4.2868    2.4750    0.0000 C   0  0  0  0  0  0  0  0  0  0  0  0
    0.0000    2.4750    0.0000 C   0  0  0  0  0  0  0  0  0  0  0  0
   -0.7144    3.7125    0.0000 C   0  0  0  0  0  0  0  0  0  0  0  0
   -1.4289    0.0000    0.0000 C   0  0  0  0  0  0  0  0  0  0  0  0
   -5.7157    3.3000    0.0000 C   0  0  0  0  0  0  0  0  0  0  0  0
    1.4289    3.3000    0.0000 C   0  0  0  0  0  0  0  0  0  0  0  0
   -2.8578    2.4750    0.0000 C   0  0  0  0  0  0  0  0  0  0  0  0
   -1.4289    2.4750    0.0000 C   0  0  0  0  0  0  0  0  0  0  0  0
   -4.2868    3.3000    0.0000 C   0  0  0  0  0  0  0  0  0  0  0  0
    0.0000    3.3000    0.0000 C   0  0  0  0  0  0  0  0  0  0  0  0
   -2.1434    1.2375    0.0000 C   0  0  0  0  0  0  0  0  0  0  0  0
   -2.1434    2.0625    0.0000 C   0  0  0  0  0  0  0  0  0  0  0  0
   -1.4289    0.8250    0.0000 N   0  0  0  0  0  0  0  0  0  0  0  0
   -5.7157    2.4750    0.0000 O   0  0  0  0  0  0  0  0  0  0  0  0
    1.4289    2.4750    0.0000 O   0  0  0  0  0  0  0  0  0  0  0  0
   -5.0012    3.7125    0.0000 O   0  0  0  0  0  0  0  0  0  0  0  0
    0.7144    3.7125    0.0000 O   0  0  0  0  0  0  0  0  0  0  0  0
    0.0000    0.0000    0.0000 H   0  0  0  0  0  0  0  0  0  0  0  0
    0.0000    0.0000    0.0000 H   0  0  0  0  0  0  0  0  0  0  0  0
    0.0000    0.0000    0.0000 H   0  0  0  0  0  0  0  0  0  0  0  0
    0.0000    0.0000    0.0000 H   0  0  0  0  0  0  0  0  0  0  0  0
    0.0000    0.0000    0.0000 H   0  0  0  0  0  0  0  0  0  0  0  0
    0.0000    0.0000    0.0000 H   0  0  0  0  0  0  0  0  0  0  0  0
    0.0000    0.0000    0.0000 H   0  0  0  0  0  0  0  0  0  0  0  0
    0.0000    0.0000    0.0000 H   0  0  0  0  0  0  0  0  0  0  0  0
    0.0000    0.0000    0.0000 H   0  0  0  0  0  0  0  0  0  0  0  0
    0.0000    0.0000    0.0000 H   0  0  0  0  0  0  0  0  0  0  0  0
    0.0000    0.0000    0.0000 H   0  0  0  0  0  0  0  0  0  0  0  0
    0.0000    0.0000    0.0000 H   0  0  0  0  0  0  0  0  0  0  0  0
    0.0000    0.0000    0.0000 H   0  0  0  0  0  0  0  0  0  0  0  0
    0.0000    0.0000    0.0000 H   0  0  0  0  0  0  0  0  0  0  0  0
    0.0000    0.0000    0.0000 H   0  0  0  0  0  0  0  0  0  0  0  0
    0.0000    0.0000    0.0000 H   0  0  0  0  0  0  0  0  0  0  0  0
    0.0000    0.0000    0.0000 H   0  0  0  0  0  0  0  0  0  0  0  0
    0.0000    0.0000    0.0000 H   0  0  0  0  0  0  0  0  0  0  0  0
    0.0000    0.0000    0.0000 H   0  0  0  0  0  0  0  0  0  0  0  0
  4  3  2  0
  5  3  1  0
 10  6  2  0
 11  7  1  0
 12  8  2  0
 13  9  1  0
 14  4  1  0
 15  1  1  0
 16  2  1  0
 17  6  1  0
 17  7  2  0
 18  8  1  0
 18  9  2  0
 19 10  1  0
 19 11  2  0
 20 12  1  0
 20 13  2  0
 21  5  2  0
 22 17  1  0
 22 18  1  0
 22 21  1  0
 23 14  2  0
 23 21  1  0
 24 15  2  0
 25 16  2  0
 26 15  1  0
 26 19  1  0
 27 16  1  0
 27 20  1  0
  1 28  1  0
  1 29  1  0
  1 30  1  0
  2 31  1  0
  2 32  1  0
  2 33  1  0
  3 34  1  0
  4 35  1  0
  5 36  1  0
  6 37  1  0
  7 38  1  0
  8 39  1  0
  9 40  1  0
 10 41  1  0
 11 42  1  0
 12 43  1  0
 13 44  1  0
 14 45  1  0
 22 46  1  0
M  END
>  <ALOGPS_LOGP>  (1) 
4.71

>  <ALOGPS_LOGS>  (1) 
-5.46

>  <ALOGPS_SOLUBILITY>  (1) 
1.27e-03 g/l

>  <DATABASE_ID>  (1) 
DB09020

>  <DATABASE_NAME>  (1) 
drugbank

>  <DRUGBANK_ID>  (1) 
DB09020

>  <DRUG_GROUPS>  (1) 
approved

>  <EXACT_MASS>  (1) 
361.131408101

>  <FORMULA>  (1) 
C22H19NO4

>  <GENERIC_NAME>  (1) 
Bisacodyl

>  <INCHI_IDENTIFIER>  (1) 
InChI=1S/C22H19NO4/c1-15(24)26-19-10-6-17(7-11-19)22(21-5-3-4-14-23-21)18-8-12-20(13-9-18)27-16(2)25/h3-14,22H,1-2H3

>  <INCHI_KEY>  (1) 
KHOITXIGCFIULA-UHFFFAOYSA-N

>  <INTERNATIONAL_BRANDS>  (1) 
Bisalax; Bolax; Boots Constipation Relief; Derderance; Dulco-Lax; Dulcolax; Dulcolaxo; Fleet Laxative; Florisan; Laxitab; Reliable Gentle Laxative Tablets; Verecolene C.M.

>  <JCHEM_ACCEPTOR_COUNT>  (1) 
3

>  <JCHEM_AVERAGE_POLARIZABILITY>  (1) 
38.48347429617583

>  <JCHEM_BIOAVAILABILITY>  (1) 
1

>  <JCHEM_DONOR_COUNT>  (1) 
0

>  <JCHEM_FORMAL_CHARGE>  (1) 
0

>  <JCHEM_GHOSE_FILTER>  (1) 
1

>  <JCHEM_IUPAC>  (1) 
4-{[4-(acetyloxy)phenyl](pyridin-2-yl)methyl}phenyl acetate

>  <JCHEM_LOGP>  (1) 
3.612595577333333

>  <JCHEM_MDDR_LIKE_RULE>  (1) 
1

>  <JCHEM_NUMBER_OF_RINGS>  (1) 
3

>  <JCHEM_PHYSIOLOGICAL_CHARGE>  (1) 
0

>  <JCHEM_PKA_STRONGEST_BASIC>  (1) 
4.0813740438639865

>  <JCHEM_POLAR_SURFACE_AREA>  (1) 
65.49000000000001

>  <JCHEM_REFRACTIVITY>  (1) 
100.1488

>  <JCHEM_ROTATABLE_BOND_COUNT>  (1) 
7

>  <JCHEM_RULE_OF_FIVE>  (1) 
1

>  <JCHEM_TRADITIONAL_IUPAC>  (1) 
bicol

>  <JCHEM_VEBER_RULE>  (1) 
0

>  <MOLECULAR_WEIGHT>  (1) 
361.3906

>  <PRODUCTS>  (1) 
Alophen; Alophen Tablets; Apo-bisacodyl; Apo-bisacodyl Sup 10mg; BET-R-PREP Bisacodyl; Becolax Tablets; Bekunis Dragees; Best Choice Bisacodyl Laxative; Bi-peglyte; Bisac-Evac; Bisac-evac; Bisacody Enteric Coated; Bisacodyl; Bisacodyl 10 mg; Bisacodyl 5 mg; Bisacodyl 5mg; Bisacodyl Ect 5mg; Bisacodyl Enteric Coated; Bisacodyl Laxative; Bisacodyl Laxative Enteric Coated; Bisacodyl Stimulant Laxative; Bisacodyl Suppository; Bisacodyl Suppository 5 mg; Bisacodyl Tab 5mg; Bisacodyl Tablets; Bisacodyl Tablets 5mg; Bisacodyl Tablets, USP 5mg; Bisacodyl-odan; Bisacodyl-odan Suppositories 10 mg; Bisacodyl-odan Suppositories 5 mg; Bisacolax; Biscolax; Biscolax Laxative; C Lax Laxative; C-Lax Laxative; CRH Medsense Bisacodyl Stimulant Laxative; CVS Gentle Laxative; Carter's Little Pills; Carters Little Pills Sodium-Free; Codulax Tablets; Correctol; Correctol Laxative - Ect 5mg; Dulcolax; Dulcolax Micro Enema 10mg/5ml; Dulcolax Pink; Dulcolax for Women; EZ2go; EZ2go Stimu-Lax; Enteric Coated Stimulant Laxative; Equaline Laxative; Feen-A-mint - Ect 5mg; Fleet; Gentlax; Gentlax S; Gentle Laxative; Gentle Laxative Enteric Coated; Gentle Laxative Stimulant Laxative; Gentle Laxative WOMENS; Gentle Laxative Womens; Gentle Laxative for Women Stimulant Laxative; Gentle Laxative womens; Gentle and Effective Laxative Enteric Coated; Good Neighbor Pharmacy Gentle Laxative; Health Sense Ducodyl; HealthMart Gentle Laxative; Jamp-bisacodyl; Lax-A Go; Laxative; Laxative Enteric Coated; Laxative Gentle; Laxative Tabelts; Laxative Women; Laxative Womens; Laxative dye free; Laxative for Women; Laxcodyl; Leader Gentle Laxative; Leader Womens Laxative; Magic Bullet Laxative Suppository; Medexus Bullet; Medique Medi-lax; New Correct; P Lax Dr; PMS-bisacodyl; Premier Value Bisacodyl Laxative; Quality Choice Gentle Laxative; Ratio-bisacodyl; Rite Aid fast relief laxative; Royvac Bowel Evacuant Kit; SIMPEX Bisacodyl laxative; Silver Bullet Suppository; Soflax EX 10; Soflax EX 5; Soflax EX Micro-enema; Stimulant Laxative; Stimulant Laxative Enteric Coated; Stratuscare Bisacodyl; Sunmark womans laxative; The Magic Bullet; The Medicine Shoppe Gentle Laxative; TopCare Laxative; Unit Dose Bisacodyl; Up and Up Gentle Laxative; Up and Up womens laxative; Walgreens Gentle Laxative; Woman's Laxative; Womans Laxative; Women's Laxative; Womens Gentle Laxative; Womens Laxative; Womens laxative; Y Lax Dr

>  <SMILES>  (1) 
CC(=O)OC1=CC=C(C=C1)C(C1=CC=C(OC(C)=O)C=C1)C1=CC=CC=N1

>  <SYNONYMS>  (1) 
Bisacodilo; Bisacodyl; Bisacodyle; Bisacodylum; Phenol, 4,4'-(2-pyridinylmethylene)bis-, diacetate (ester); Spirolax

$$$$
