
     RDKit          2D

119128  0  0  1  0  0  0  0  0999 V2000
   -2.3429    5.7818    0.0000 C   0  0  0  0  0  0  0  0  0  0  0  0
   -1.7617    7.0872    0.0000 C   0  0  0  0  0  0  0  0  0  0  0  0
   10.5075    7.1846    0.0000 C   0  0  0  0  0  0  0  0  0  0  0  0
   11.6635    6.3447    0.0000 C   0  0  0  0  0  0  0  0  0  0  0  0
    1.9203    6.2299    0.0000 C   0  0  0  0  0  0  0  0  0  0  0  0
   11.3648    3.5025    0.0000 C   0  0  0  0  0  0  0  0  0  0  0  0
    8.5310    8.1108    0.0000 C   0  0  0  0  0  0  0  0  0  0  0  0
    5.1369    2.9255    0.0000 C   0  0  0  0  0  0  0  0  0  0  0  0
    1.6713    2.1889    0.0000 C   0  0  0  0  0  0  0  0  0  0  0  0
    6.6443    3.5967    0.0000 C   0  0  0  0  0  0  0  0  0  0  0  0
    9.3515    8.0246    0.0000 C   0  0  0  0  0  0  0  0  0  0  0  0
    4.3833    2.5900    0.0000 C   0  0  0  0  0  0  0  0  0  0  0  0
    2.4963    2.1889    0.0000 C   0  0  0  0  0  0  0  0  0  0  0  0
    7.3980    3.9322    0.0000 C   0  0  0  0  0  0  0  0  0  0  0  0
   -3.4871    4.6258    0.0000 C   0  0  0  0  0  0  0  0  0  0  0  0
   -3.4871    3.8008    0.0000 C   0  0  0  0  0  0  0  0  0  0  0  0
    8.8881    7.5622    0.0000 C   0  0  0  0  0  0  0  0  0  0  0  0
    4.5557    4.2309    0.0000 C   0  0  0  0  0  0  0  0  0  0  0  0
    1.6713    3.6178    0.0000 C   0  0  0  0  0  0  0  0  0  0  0  0
    6.0631    4.9021    0.0000 C   0  0  0  0  0  0  0  0  0  0  0  0
   -2.2877    3.5459    0.0000 C   0  0  0  0  0  0  0  0  0  0  0  0
   -0.0510    2.2359    0.0000 C   0  0  0  0  0  0  0  0  0  0  0  0
   -2.2877    4.8807    0.0000 C   0  0  0  0  0  0  0  0  0  0  0  0
   -1.6755    6.2668    0.0000 C   0  0  0  0  0  0  0  0  0  0  0  0
   10.8431    6.4310    0.0000 C   0  0  0  0  0  0  0  0  0  0  0  0
    5.2232    3.7460    0.0000 C   0  0  0  0  0  0  0  0  0  0  0  0
    5.9768    4.0816    0.0000 C   0  0  0  0  0  0  0  0  0  0  0  0
    1.2588    2.9034    0.0000 C   0  0  0  0  0  0  0  0  0  0  0  0
    8.0461    7.4433    0.0000 C   0  0  0  0  0  0  0  0  0  0  0  0
    9.6870    7.2709    0.0000 C   0  0  0  0  0  0  0  0  0  0  0  0
    3.7158    3.0749    0.0000 C   0  0  0  0  0  0  0  0  0  0  0  0
    2.9088    2.9034    0.0000 C   0  0  0  0  0  0  0  0  0  0  0  0
    3.8021    3.8954    0.0000 C   0  0  0  0  0  0  0  0  0  0  0  0
    2.4963    3.6178    0.0000 C   0  0  0  0  0  0  0  0  0  0  0  0
    7.4842    4.7527    0.0000 C   0  0  0  0  0  0  0  0  0  0  0  0
    6.8168    5.2376    0.0000 C   0  0  0  0  0  0  0  0  0  0  0  0
    0.4338    2.9034    0.0000 C   0  0  0  0  0  0  0  0  0  0  0  0
   -1.5030    3.8008    0.0000 C   0  0  0  0  0  0  0  0  0  0  0  0
   -0.9218    5.9312    0.0000 C   0  0  0  0  0  0  0  0  0  0  0  0
   10.3581    5.7635    0.0000 C   0  0  0  0  0  0  0  0  0  0  0  0
    8.3816    6.6897    0.0000 C   0  0  0  0  0  0  0  0  0  0  0  0
   -0.8356    3.3159    0.0000 C   0  0  0  0  0  0  0  0  0  0  0  0
    7.8967    6.0222    0.0000 C   0  0  0  0  0  0  0  0  0  0  0  0
   -0.8356    5.1107    0.0000 C   0  0  0  0  0  0  0  0  0  0  0  0
    9.5377    5.8498    0.0000 C   0  0  0  0  0  0  0  0  0  0  0  0
    0.4992    6.0806    0.0000 C   0  0  0  0  0  0  0  0  0  0  0  0
   10.2088    4.3424    0.0000 C   0  0  0  0  0  0  0  0  0  0  0  0
   -2.7726    4.2133    0.0000 C   0  0  0  0  0  0  0  0  0  0  0  0
    3.0484    4.2309    0.0000 C   0  0  0  0  0  0  0  0  0  0  0  0
    3.2951    5.0182    0.0000 F   0  0  0  0  0  0  0  0  0  0  0  0
    2.5028    4.8498    0.0000 F   0  0  0  0  0  0  0  0  0  0  0  0
   -0.8356    2.4909    0.0000 N   0  0  0  0  0  0  0  0  0  0  0  0
    8.1516    5.2376    0.0000 N   0  0  0  0  0  0  0  0  0  0  0  0
    7.0717    6.0222    0.0000 N   0  0  0  0  0  0  0  0  0  0  0  0
   -0.0510    3.5708    0.0000 N   0  0  0  0  0  0  0  0  0  0  0  0
   -0.2544    6.4161    0.0000 N   0  0  0  0  0  0  0  0  0  0  0  0
   10.6937    5.0099    0.0000 N   0  0  0  0  0  0  0  0  0  0  0  0
   -1.5030    4.6258    0.0000 N   0  0  0  0  0  0  0  0  0  0  0  0
    9.2021    6.6034    0.0000 N   0  0  0  0  0  0  0  0  0  0  0  0
   -0.0819    4.7752    0.0000 O   0  0  0  0  0  0  0  0  0  0  0  0
    9.0527    5.1823    0.0000 O   0  0  0  0  0  0  0  0  0  0  0  0
    0.5854    5.2601    0.0000 O   0  0  0  0  0  0  0  0  0  0  0  0
    9.3883    4.4286    0.0000 O   0  0  0  0  0  0  0  0  0  0  0  0
    1.1666    6.5655    0.0000 O   0  0  0  0  0  0  0  0  0  0  0  0
   10.5443    3.5887    0.0000 O   0  0  0  0  0  0  0  0  0  0  0  0
    0.0000    0.0000    0.0000 H   0  0  0  0  0  0  0  0  0  0  0  0
    0.0000    0.0000    0.0000 H   0  0  0  0  0  0  0  0  0  0  0  0
    0.0000    0.0000    0.0000 H   0  0  0  0  0  0  0  0  0  0  0  0
    0.0000    0.0000    0.0000 H   0  0  0  0  0  0  0  0  0  0  0  0
    0.0000    0.0000    0.0000 H   0  0  0  0  0  0  0  0  0  0  0  0
    0.0000    0.0000    0.0000 H   0  0  0  0  0  0  0  0  0  0  0  0
    0.0000    0.0000    0.0000 H   0  0  0  0  0  0  0  0  0  0  0  0
    0.0000    0.0000    0.0000 H   0  0  0  0  0  0  0  0  0  0  0  0
    0.0000    0.0000    0.0000 H   0  0  0  0  0  0  0  0  0  0  0  0
    0.0000    0.0000    0.0000 H   0  0  0  0  0  0  0  0  0  0  0  0
    0.0000    0.0000    0.0000 H   0  0  0  0  0  0  0  0  0  0  0  0
    0.0000    0.0000    0.0000 H   0  0  0  0  0  0  0  0  0  0  0  0
    0.0000    0.0000    0.0000 H   0  0  0  0  0  0  0  0  0  0  0  0
    0.0000    0.0000    0.0000 H   0  0  0  0  0  0  0  0  0  0  0  0
    0.0000    0.0000    0.0000 H   0  0  0  0  0  0  0  0  0  0  0  0
    0.0000    0.0000    0.0000 H   0  0  0  0  0  0  0  0  0  0  0  0
    0.0000    0.0000    0.0000 H   0  0  0  0  0  0  0  0  0  0  0  0
    0.0000    0.0000    0.0000 H   0  0  0  0  0  0  0  0  0  0  0  0
    0.0000    0.0000    0.0000 H   0  0  0  0  0  0  0  0  0  0  0  0
    0.0000    0.0000    0.0000 H   0  0  0  0  0  0  0  0  0  0  0  0
    0.0000    0.0000    0.0000 H   0  0  0  0  0  0  0  0  0  0  0  0
    0.0000    0.0000    0.0000 H   0  0  0  0  0  0  0  0  0  0  0  0
    0.0000    0.0000    0.0000 H   0  0  0  0  0  0  0  0  0  0  0  0
    0.0000    0.0000    0.0000 H   0  0  0  0  0  0  0  0  0  0  0  0
    0.0000    0.0000    0.0000 H   0  0  0  0  0  0  0  0  0  0  0  0
    0.0000    0.0000    0.0000 H   0  0  0  0  0  0  0  0  0  0  0  0
    0.0000    0.0000    0.0000 H   0  0  0  0  0  0  0  0  0  0  0  0
    0.0000    0.0000    0.0000 H   0  0  0  0  0  0  0  0  0  0  0  0
    0.0000    0.0000    0.0000 H   0  0  0  0  0  0  0  0  0  0  0  0
    0.0000    0.0000    0.0000 H   0  0  0  0  0  0  0  0  0  0  0  0
    0.0000    0.0000    0.0000 H   0  0  0  0  0  0  0  0  0  0  0  0
    0.0000    0.0000    0.0000 H   0  0  0  0  0  0  0  0  0  0  0  0
    0.0000    0.0000    0.0000 H   0  0  0  0  0  0  0  0  0  0  0  0
    0.0000    0.0000    0.0000 H   0  0  0  0  0  0  0  0  0  0  0  0
    0.0000    0.0000    0.0000 H   0  0  0  0  0  0  0  0  0  0  0  0
    0.0000    0.0000    0.0000 H   0  0  0  0  0  0  0  0  0  0  0  0
    0.0000    0.0000    0.0000 H   0  0  0  0  0  0  0  0  0  0  0  0
    0.0000    0.0000    0.0000 H   0  0  0  0  0  0  0  0  0  0  0  0
    0.0000    0.0000    0.0000 H   0  0  0  0  0  0  0  0  0  0  0  0
    0.0000    0.0000    0.0000 H   0  0  0  0  0  0  0  0  0  0  0  0
    0.0000    0.0000    0.0000 H   0  0  0  0  0  0  0  0  0  0  0  0
    0.0000    0.0000    0.0000 H   0  0  0  0  0  0  0  0  0  0  0  0
    0.0000    0.0000    0.0000 H   0  0  0  0  0  0  0  0  0  0  0  0
    0.0000    0.0000    0.0000 H   0  0  0  0  0  0  0  0  0  0  0  0
    0.0000    0.0000    0.0000 H   0  0  0  0  0  0  0  0  0  0  0  0
    0.0000    0.0000    0.0000 H   0  0  0  0  0  0  0  0  0  0  0  0
    0.0000    0.0000    0.0000 H   0  0  0  0  0  0  0  0  0  0  0  0
    0.0000    0.0000    0.0000 H   0  0  0  0  0  0  0  0  0  0  0  0
    0.0000    0.0000    0.0000 H   0  0  0  0  0  0  0  0  0  0  0  0
    0.0000    0.0000    0.0000 H   0  0  0  0  0  0  0  0  0  0  0  0
    0.0000    0.0000    0.0000 H   0  0  0  0  0  0  0  0  0  0  0  0
    0.0000    0.0000    0.0000 H   0  0  0  0  0  0  0  0  0  0  0  0
    0.0000    0.0000    0.0000 H   0  0  0  0  0  0  0  0  0  0  0  0
    0.0000    0.0000    0.0000 H   0  0  0  0  0  0  0  0  0  0  0  0
 11  7  1  0
 12  8  1  0
 13  9  1  0
 14 10  1  0
 16 15  1  0
 24  1  1  0
 24  2  1  0
 25  3  1  0
 25  4  1  0
 26  8  2  0
 26 18  1  0
 27 10  2  0
 27 20  1  0
 27 26  1  0
 28  9  2  0
 28 19  1  0
 29  7  1  0
 29 17  1  0
 30 11  1  0
 30 17  1  0
 31 12  2  0
 32 13  2  0
 32 31  1  0
 33 18  2  0
 33 31  1  0
 34 19  2  0
 34 32  1  0
 35 14  2  0
 36 20  2  0
 36 35  1  0
 37 22  2  0
 37 28  1  0
 38 21  1  0
 39 24  1  1
 40 25  1  1
 41 29  1  0
 38 42  1  6
 41 43  1  6
 44 39  1  0
 45 40  1  0
 48 15  1  0
 48 16  1  0
 48 21  1  0
 48 23  1  0
 49 33  1  0
 49 34  1  0
 50 49  1  0
 51 49  1  0
 52 22  1  0
 52 42  2  0
 53 35  1  0
 53 43  2  0
 54 36  1  0
 54 43  1  0
 55 37  1  0
 55 42  1  0
 39 56  1  0
 56 46  2  3
 40 57  1  0
 57 47  2  3
 58 23  1  0
 58 38  1  0
 58 44  1  0
 59 30  1  0
 59 41  1  0
 59 45  1  0
 60 44  2  0
 61 45  2  0
 46 62  1  0
 47 63  1  0
 64  5  1  0
 64 46  1  0
 65  6  1  0
 65 47  1  0
  1 66  1  0
  1 67  1  0
  1 68  1  0
  2 69  1  0
  2 70  1  0
  2 71  1  0
  3 72  1  0
  3 73  1  0
  3 74  1  0
  4 75  1  0
  4 76  1  0
  4 77  1  0
  5 78  1  0
  5 79  1  0
  5 80  1  0
  6 81  1  0
  6 82  1  0
  6 83  1  0
  7 84  1  0
  7 85  1  0
  8 86  1  0
  9 87  1  0
 10 88  1  0
 11 89  1  0
 11 90  1  0
 12 91  1  0
 13 92  1  0
 14 93  1  0
 15 94  1  0
 15 95  1  0
 16 96  1  0
 16 97  1  0
 17 98  1  0
 17 99  1  0
 18100  1  0
 19101  1  0
 20102  1  0
 21103  1  0
 21104  1  0
 22105  1  0
 23106  1  0
 23107  1  0
 24108  1  0
 25109  1  0
 29110  1  6
 30111  1  6
 38112  1  0
 39113  1  0
 40114  1  0
 41115  1  0
 54116  1  0
 55117  1  0
 62118  1  0
 63119  1  0
M  END
>  <ALOGPS_LOGP>  (1) 
5.92

>  <ALOGPS_LOGS>  (1) 
-5.69

>  <ALOGPS_SOLUBILITY>  (1) 
1.82e-03 g/l

>  <DATABASE_ID>  (1) 
DB09027

>  <DATABASE_NAME>  (1) 
drugbank

>  <DRUGBANK_ID>  (1) 
DB09027

>  <DRUG_GROUPS>  (1) 
approved

>  <EXACT_MASS>  (1) 
888.41343791

>  <FORMULA>  (1) 
C49H54F2N8O6

>  <GENERIC_NAME>  (1) 
Ledipasvir

>  <INCHI_IDENTIFIER>  (1) 
InChI=1S/C49H54F2N8O6/c1-24(2)39(56-46(62)64-5)44(60)58-23-48(15-16-48)21-38(58)42-52-22-37(55-42)28-9-13-32-31-12-8-26(18-33(31)49(50,51)34(32)19-28)27-10-14-35-36(20-27)54-43(53-35)41-29-7-11-30(17-29)59(41)45(61)40(25(3)4)57-47(63)65-6/h8-10,12-14,18-20,22,24-25,29-30,38-41H,7,11,15-17,21,23H2,1-6H3,(H,52,55)(H,53,54)(H,56,62)(H,57,63)/t29-,30+,38-,39-,40-,41-/m0/s1

>  <INCHI_KEY>  (1) 
VRTWBAAJJOHBQU-KMWAZVGDSA-N

>  <JCHEM_ACCEPTOR_COUNT>  (1) 
10

>  <JCHEM_ATOM_COUNT>  (1) 
119

>  <JCHEM_AVERAGE_POLARIZABILITY>  (1) 
98.90835648207572

>  <JCHEM_BIOAVAILABILITY>  (1) 
0

>  <JCHEM_DONOR_COUNT>  (1) 
4

>  <JCHEM_FORMAL_CHARGE>  (1) 
0

>  <JCHEM_GHOSE_FILTER>  (1) 
0

>  <JCHEM_IUPAC>  (1) 
(2S)-1-[(6S)-6-[5-(9,9-difluoro-7-{2-[(1R,3S,4S)-2-[(2S)-2-{[hydroxy(methoxy)methylidene]amino}-3-methylbutanoyl]-2-azabicyclo[2.2.1]heptan-3-yl]-1H-1,3-benzodiazol-6-yl}-9H-fluoren-2-yl)-1H-imidazol-2-yl]-5-azaspiro[2.4]heptan-5-yl]-2-{[hydroxy(methoxy)methylidene]amino}-3-methylbutan-1-one

>  <JCHEM_LOGP>  (1) 
6.112661829638906

>  <JCHEM_MDDR_LIKE_RULE>  (1) 
1

>  <JCHEM_NUMBER_OF_RINGS>  (1) 
10

>  <JCHEM_PHYSIOLOGICAL_CHARGE>  (1) 
0

>  <JCHEM_PKA>  (1) 
4.306727775038948

>  <JCHEM_PKA_STRONGEST_ACIDIC>  (1) 
3.7583194251235326

>  <JCHEM_PKA_STRONGEST_BASIC>  (1) 
5.845499528969323

>  <JCHEM_POLAR_SURFACE_AREA>  (1) 
181.61999999999995

>  <JCHEM_REFRACTIVITY>  (1) 
237.3031

>  <JCHEM_ROTATABLE_BOND_COUNT>  (1) 
12

>  <JCHEM_RULE_OF_FIVE>  (1) 
0

>  <JCHEM_TRADITIONAL_IUPAC>  (1) 
(2S)-1-[(6S)-6-[4-(9,9-difluoro-7-{2-[(1R,3S,4S)-2-[(2S)-2-{[hydroxy(methoxy)methylidene]amino}-3-methylbutanoyl]-2-azabicyclo[2.2.1]heptan-3-yl]-3H-1,3-benzodiazol-5-yl}fluoren-2-yl)-3H-imidazol-2-yl]-5-azaspiro[2.4]heptan-5-yl]-2-{[hydroxy(methoxy)methylidene]amino}-3-methylbutan-1-one

>  <JCHEM_VEBER_RULE>  (1) 
0

>  <MOLECULAR_WEIGHT>  (1) 
888.9999

>  <PRODUCTS>  (1) 
Harvoni

>  <SMILES>  (1) 
[H][C@](N=C(O)OC)(C(C)C)C(=O)N1CC2(CC2)C[C@@]1([H])C1=NC=C(N1)C1=CC2=C(C=C1)C1=C(C=C(C=C1)C1=CC3=C(C=C1)N=C(N3)[C@@]1([H])N(C(=O)[C@@]([H])(N=C(O)OC)C(C)C)[C@]3([H])CC[C@@]1([H])C3)C2(F)F

>  <SYNONYMS>  (1) 
methyl [(2S)-1-{(6S)-6-[4-(9,9-difluoro-7-{2-[(1R,3S,4S)-2-{(2S)-2-[(methoxycarbonyl)amino]-3-methylbutanoyl}-2-azabicyclo[2.2.1]hept-3-yl]-1H-benzimidazol-5-yl}-9H-fluoren-2-yl)-1H-imidazol-2-yl]-5-azaspiro[2.4]hept-5-yl}-3-methyl-1-oxobutan-2-yl]carbamate

$$$$
