
     RDKit          2D

 47 47  0  0  0  0  0  0  0  0999 V2000
   -1.4387   -0.1776    0.0000 C   0  0  0  0  0  0  0  0  0  0  0  0
   -1.4387   -1.0005    0.0000 C   0  0  0  0  0  0  0  0  0  0  0  0
   -0.6938    0.2313    0.0000 C   0  0  0  0  0  0  0  0  0  0  0  0
   -2.1544    0.2313    0.0000 C   0  0  0  0  0  0  0  0  0  0  0  0
   -2.1544   -1.4094    0.0000 C   0  0  0  0  0  0  0  0  0  0  0  0
   -0.6938    1.0589    0.0000 O   0  0  0  0  0  0  0  0  0  0  0  0
   -2.8604   -1.0248    0.0000 C   0  0  0  0  0  0  0  0  0  0  0  0
    0.0073   -0.1776    0.0000 O   0  0  0  0  0  0  0  0  0  0  0  0
   -2.8604   -0.1776    0.0000 C   0  0  0  0  0  0  0  0  0  0  0  0
   -0.7084   -1.4387    0.0000 O   0  0  0  0  0  0  0  0  0  0  0  0
    2.1690    0.2117    0.0000 N   0  0  0  0  0  0  0  0  0  0  0  0
   -3.5858   -1.4533    0.0000 N   0  0  0  0  0  0  0  0  0  0  0  0
    0.7327    0.2313    0.0000 C   0  0  0  0  0  0  0  0  0  0  0  0
    1.4387   -0.1971    0.0000 C   0  0  0  0  0  0  0  0  0  0  0  0
    2.1690    1.0346    0.0000 C   0  0  0  0  0  0  0  0  0  0  0  0
    2.8798   -0.1971    0.0000 C   0  0  0  0  0  0  0  0  0  0  0  0
    0.0073   -1.0248    0.0000 C   0  0  0  0  0  0  0  0  0  0  0  0
    0.7180   -1.4533    0.0000 C   0  0  0  0  0  0  0  0  0  0  0  0
    2.8798    1.4533    0.0000 C   0  0  0  0  0  0  0  0  0  0  0  0
    3.5858    0.2117    0.0000 C   0  0  0  0  0  0  0  0  0  0  0  0
    1.4387   -1.0443    0.0000 C   0  0  0  0  0  0  0  0  0  0  0  0
    0.0000    0.0000    0.0000 H   0  0  0  0  0  0  0  0  0  0  0  0
    0.0000    0.0000    0.0000 H   0  0  0  0  0  0  0  0  0  0  0  0
    0.0000    0.0000    0.0000 H   0  0  0  0  0  0  0  0  0  0  0  0
    0.0000    0.0000    0.0000 H   0  0  0  0  0  0  0  0  0  0  0  0
    0.0000    0.0000    0.0000 H   0  0  0  0  0  0  0  0  0  0  0  0
    0.0000    0.0000    0.0000 H   0  0  0  0  0  0  0  0  0  0  0  0
    0.0000    0.0000    0.0000 H   0  0  0  0  0  0  0  0  0  0  0  0
    0.0000    0.0000    0.0000 H   0  0  0  0  0  0  0  0  0  0  0  0
    0.0000    0.0000    0.0000 H   0  0  0  0  0  0  0  0  0  0  0  0
    0.0000    0.0000    0.0000 H   0  0  0  0  0  0  0  0  0  0  0  0
    0.0000    0.0000    0.0000 H   0  0  0  0  0  0  0  0  0  0  0  0
    0.0000    0.0000    0.0000 H   0  0  0  0  0  0  0  0  0  0  0  0
    0.0000    0.0000    0.0000 H   0  0  0  0  0  0  0  0  0  0  0  0
    0.0000    0.0000    0.0000 H   0  0  0  0  0  0  0  0  0  0  0  0
    0.0000    0.0000    0.0000 H   0  0  0  0  0  0  0  0  0  0  0  0
    0.0000    0.0000    0.0000 H   0  0  0  0  0  0  0  0  0  0  0  0
    0.0000    0.0000    0.0000 H   0  0  0  0  0  0  0  0  0  0  0  0
    0.0000    0.0000    0.0000 H   0  0  0  0  0  0  0  0  0  0  0  0
    0.0000    0.0000    0.0000 H   0  0  0  0  0  0  0  0  0  0  0  0
    0.0000    0.0000    0.0000 H   0  0  0  0  0  0  0  0  0  0  0  0
    0.0000    0.0000    0.0000 H   0  0  0  0  0  0  0  0  0  0  0  0
    0.0000    0.0000    0.0000 H   0  0  0  0  0  0  0  0  0  0  0  0
    0.0000    0.0000    0.0000 H   0  0  0  0  0  0  0  0  0  0  0  0
    0.0000    0.0000    0.0000 H   0  0  0  0  0  0  0  0  0  0  0  0
    0.0000    0.0000    0.0000 H   0  0  0  0  0  0  0  0  0  0  0  0
    0.0000    0.0000    0.0000 H   0  0  0  0  0  0  0  0  0  0  0  0
  2  1  2  0
  3  1  1  0
  4  1  1  0
  5  2  1  0
  6  3  2  0
  7  9  1  0
  8  3  1  0
  9  4  2  0
 10  2  1  0
 11 14  1  0
 12  7  1  0
 13  8  1  0
 14 13  1  0
 15 11  1  0
 16 11  1  0
 17 10  1  0
 18 17  1  0
 19 15  1  0
 20 16  1  0
 21 18  1  0
  7  5  2  0
  4 22  1  0
  5 23  1  0
  9 24  1  0
 12 25  1  0
 12 26  1  0
 13 27  1  0
 13 28  1  0
 14 29  1  0
 14 30  1  0
 15 31  1  0
 15 32  1  0
 16 33  1  0
 16 34  1  0
 17 35  1  0
 17 36  1  0
 18 37  1  0
 18 38  1  0
 19 39  1  0
 19 40  1  0
 19 41  1  0
 20 42  1  0
 20 43  1  0
 20 44  1  0
 21 45  1  0
 21 46  1  0
 21 47  1  0
M  END
>  <ALOGPS_LOGP>  (1) 
2.89

>  <ALOGPS_LOGS>  (1) 
-2.22

>  <ALOGPS_SOLUBILITY>  (1) 
1.79e+00 g/l

>  <DATABASE_ID>  (1) 
DB09342

>  <DATABASE_NAME>  (1) 
drugbank

>  <DRUGBANK_ID>  (1) 
DB09342

>  <DRUG_GROUPS>  (1) 
approved

>  <EXACT_MASS>  (1) 
294.194342705

>  <FORMULA>  (1) 
C16H26N2O3

>  <GENERIC_NAME>  (1) 
Propoxycaine

>  <INCHI_IDENTIFIER>  (1) 
InChI=1S/C16H26N2O3/c1-4-10-20-15-12-13(17)7-8-14(15)16(19)21-11-9-18(5-2)6-3/h7-8,12H,4-6,9-11,17H2,1-3H3

>  <INCHI_KEY>  (1) 
CAJIGINSTLKQMM-UHFFFAOYSA-N

>  <JCHEM_ACCEPTOR_COUNT>  (1) 
4

>  <JCHEM_ATOM_COUNT>  (1) 
47

>  <JCHEM_AVERAGE_POLARIZABILITY>  (1) 
34.20192397705729

>  <JCHEM_BIOAVAILABILITY>  (1) 
1

>  <JCHEM_DONOR_COUNT>  (1) 
1

>  <JCHEM_FORMAL_CHARGE>  (1) 
0

>  <JCHEM_GHOSE_FILTER>  (1) 
1

>  <JCHEM_IUPAC>  (1) 
2-(diethylamino)ethyl 4-amino-2-propoxybenzoate

>  <JCHEM_LOGP>  (1) 
2.601716341666667

>  <JCHEM_MDDR_LIKE_RULE>  (1) 
0

>  <JCHEM_NUMBER_OF_RINGS>  (1) 
1

>  <JCHEM_PHYSIOLOGICAL_CHARGE>  (1) 
1

>  <JCHEM_PKA_STRONGEST_BASIC>  (1) 
8.961551473723942

>  <JCHEM_POLAR_SURFACE_AREA>  (1) 
64.79

>  <JCHEM_REFRACTIVITY>  (1) 
86.03580000000001

>  <JCHEM_ROTATABLE_BOND_COUNT>  (1) 
10

>  <JCHEM_RULE_OF_FIVE>  (1) 
1

>  <JCHEM_TRADITIONAL_IUPAC>  (1) 
propoxycaine

>  <JCHEM_VEBER_RULE>  (1) 
0

>  <MOLECULAR_WEIGHT>  (1) 
294.395

>  <SALTS>  (1) 
Propoxycaine hydrochloride

>  <SMILES>  (1) 
CCCOC1=CC(N)=CC=C1C(=O)OCCN(CC)CC

$$$$
