
     RDKit          2D

  2  1  0  0  0  0  0  0  0  0999 V2000
    0.0000   -2.6202    0.0000 Zn  0  0  0  0  0  0  0  0  0  0  0  0
    0.8250   -2.6208    0.0000 O   0  0  0  0  0  0  0  0  0  0  0  0
  1  2  2  0
M  END
>  <DATABASE_ID>  (1) 
DB09321

>  <DATABASE_NAME>  (1) 
drugbank

>  <DRUGBANK_ID>  (1) 
DB09321

>  <DRUG_GROUPS>  (1) 
approved

>  <EXACT_MASS>  (1) 
79.9240612

>  <FORMULA>  (1) 
OZn

>  <GENERIC_NAME>  (1) 
Zinc oxide

>  <INCHI_IDENTIFIER>  (1) 
InChI=1S/O.Zn

>  <INCHI_KEY>  (1) 
XLOMVQKBTHCTTD-UHFFFAOYSA-N

>  <JCHEM_ACCEPTOR_COUNT>  (1) 
1

>  <JCHEM_ATOM_COUNT>  (1) 
2

>  <JCHEM_AVERAGE_POLARIZABILITY>  (1) 
2.9953209691603817

>  <JCHEM_BIOAVAILABILITY>  (1) 
1

>  <JCHEM_DONOR_COUNT>  (1) 
0

>  <JCHEM_FORMAL_CHARGE>  (1) 
0

>  <JCHEM_GHOSE_FILTER>  (1) 
0

>  <JCHEM_IUPAC>  (1) 
oxozinc

>  <JCHEM_LOGP>  (1) 
-0.19539999999999996

>  <JCHEM_MDDR_LIKE_RULE>  (1) 
0

>  <JCHEM_NUMBER_OF_RINGS>  (1) 
0

>  <JCHEM_PHYSIOLOGICAL_CHARGE>  (1) 
0

>  <JCHEM_PKA_STRONGEST_BASIC>  (1) 
-5.735795358565773

>  <JCHEM_POLAR_SURFACE_AREA>  (1) 
17.07

>  <JCHEM_REFRACTIVITY>  (1) 
1.4429

>  <JCHEM_ROTATABLE_BOND_COUNT>  (1) 
0

>  <JCHEM_RULE_OF_FIVE>  (1) 
1

>  <JCHEM_TRADITIONAL_IUPAC>  (1) 
zinc oxide

>  <JCHEM_VEBER_RULE>  (1) 
1

>  <MOLECULAR_WEIGHT>  (1) 
81.408

>  <PRODUCTS>  (1) 
01 Moisture Foundation SPF 15; 02 Moisture Foundation SPF 15; 03 Moisture Foundation SPF 15; 04 Moisture Foundation SPF 15; 05 Moisture Foundation SPF 15; 06 Moisture Foundation SPF 15; 07 Moisture Foundation SPF 15; 08 Moisture Foundation SPF 15; 100% Pure Argan Oil Moisturizer SPF 30; 100% Pure Baby Sunscreen SPF 30; 100% Pure Everywhere Sunscreen SPF 30; 100% Pure Green Tea Oil Free Moisturizer SPF 30; 100% Pure Sweet Mint Lip Balm SPF 15; 100% Pure Yerba Mate MIst SPF 30; 1000 Roses CC Color Plus Correct Sheer Tan SPF 30; 1000 Roses CC Color plus Correct Sheer Nude SPF 30; 15hr Cover Lasting M201 Medium Beige Spf50; 15hr Cover Lasting Spf50; 15hr Cover Lasting V201 Apricot Beige Spf50; 21STAY A Thera Sun Block; 24K Bio-Brightening Dark Circle Eye SPF 30; 28 Remedy Juvenile Sun BB Light Beige; 28 Remedy Juvenile Sun BB Natural Beige; 3Function CC Cream; 3LAB PERFECT Lite Sunscreen SPF 30 Broad Spectrum; A + D Diaper Rash Cream; A AND A Diaper Rash cream; A Perfect World Age Defense Eye With White Tea Broad Spectrum SPF 20; A Retinol SPF 20; A and D; A.H.C. COMPLETE CHOICE Color Change Cream; A.H.C. COMPLETE CHOICE liftox Cream; AAPE Continuous Renewal Sun; ABC Arbonne Baby Care Diaper Rash; ABC Arbonne Baby Care Kit; ABC Arbonne Baby Care Little Bundles Set; ABC Arbonne Baby Care Sample Set; ABC Arbonne Baby Care Sunscreen Broad Spectrum SPF 30; ACCOJE SUNSCREEN (SPF50 Broad Spectrum); ACTIVE ARGAN 02.3(TM) PLASMA PRO 50 FEATHERWEIGHT DAY BROAD SPECTRUM SPF 20 WITH PROPRIETARY A.P.I. and ACTIVATED ARGAN COMPLEX(TM); AHC Premium Intense Contour Balm; AIR COTTON Makeup Base 02 SPF30; AL0040400 Alba VE Mineral Sunscreen SPF35; AL0040500 Alba VE Mineral Sunscreen Herbal Fresh SPF35; ARTISTRY IDEAL RADIANCE UV Protect SPF 50 PLUS Broad Spectrum Sunscreen; ARTISTRY Time Defiance UV Defense SPF 50 Ultra Facial Sunscreen; ASAP Skin Products Moisturising Daily Defense SPF 30; ATOMY BB Broad Spectrum; ATOPALM Diaper Rash; AV453902 Avalon Organics Intense Defense Sheer Moisture SPF10; Abc Arbonne Baby Care Diaper Rash Cream; Abella Color Shade SPF 35 Dark; Abella Color Shade SPF 35 Ebony; Abella Color Shade SPF 35 Light; Abella ColorShade SPF 35 Medium; Absolute Oil Control Foundation; Absolute Total BB SPF37 PA 3Plus; Active Daily Defense; Active Day Cream With Uv-protection; Active FE; Acure Mineral Protection Sunscreen Broad Spectrum SPF 30; Acwell Sensitive Solu Tion Sun Control; Advanced Anti-Aging Eye Broad Spectrum SPF 37 Supergoop; Advanced Cell Boosting EX Bb Spf30 Pa Plus Plus 01 Light Bb; Advanced Cell Boosting EX Bb Spf30 Pa Plus Plus 02 Natural; Advanced Protection SPF-15; Advanced Protection Sunscreen SPF-30; Aftate Zinc Oxide; Agatha Fitting Touch Make Up Set; Age Defense BB Cream SPF 30; Age Defense Bb Broad Spectrum SPF 30 All Skin Types; Age Defense Snail BB Cream; Age Defying Mineral Moisturizer; Age Renewal Firming; Age Renewal Firming and Hydrating Moisturizer; Age Renewal Firming and Hydrating Moisturizer SPF 30; Air Cotton Make-UP Base 02 Spf30; Alba Even Advanced Mineral CC Cream Fair to Light SPF15; Alba Even Advanced Mineral CC Cream Light to Medium SPF15; Alba Good and Healthy Moisturizer SPF15; Alba Kids Mineral Sunblock SPF 30; Alba Lip Care Sunblock SPF 25; Alba Mineral Sunscreen Sport SPF45 Broad Spectrum; Alba Mineral Terr Tint SPF15 Bloom; Alba Mineral Terra Tint SPF15 Blaze; Alba Mineral Terra Tint SPF15 Garnet; Alba Sunblock Facial SPF 20; Alba Sunblock Mineral Aloe Vanilla SPF 30; Alba Sunblock Mineral FF SPF 30; Alba TerraTint Blaze SPF 15 Lip Balm; Alba TerraTint Bloom SPF 15 Lip Balm; Alba TerraTint Garnet SPF 15 Lip Balm; Alba Very Emollient Sunscreen Lip Care SPF25; Alexander's Rash Ease - Sport Cream; Alexander's Rash Ease - for Babies; Alexander's Rash Ease for Adults; Algenist; All Aglow Perfect Cushion Foundation; All Calm Clinical Redness Corrector SPF 50; All Day Moisture; All Day Moisturizing; All Natural Suncreen; All Season Face; Almay Age Essentials Concealer SPF 20; Almay Age Smart Shade CC Luminous Primer SPF 15; Almay Health Glow 3-In-1 Makeup SPF 20; Almay Healthy Glow Makeup + Gradual Self Tan SPF 20; Almay Kinetin Skin-smoothing Foundation SPF 15; Almay Line Smoothing Liquid Make-Up for Dry Skin; Almay Nearly Naked Liquid Makeup SPF 15; Almay Smart Shade Anti-aging Skintone Matching Makeup SPF 20; Almay Smart Shade Skintone Anti- Aging Make-Up; Almay Smart Shade Skintone Matching Makeup; Almay Smart Shade Smart Balance Make-Up; Aloe Sun Bb Spf50 Plus Pa Plus Plus Plus; Aloevella; Alpha Hydrox Sheer Silk Moisturizer SPF 15; Always Nuddy CC; Always Perfect CC; Always Triple BB; Amanda Beard's Lip Balmer SPF 15; Amarte Ultra Veil Ultra Light Sunscreen Fluid; Amazonian Clay 12-Hour Full Coverage Foundation Broad Spectrum SPF 15 Sunscreen Deep Sand; Amazonian Clay 12-Hour Full Coverage Foundation Broad Spectrum SPF 15 Sunscreen Fair Beige; Amazonian Clay 12-Hour Full Coverage Foundation Broad Spectrum SPF 15 Sunscreen Fair Sand; Amazonian Clay 12-Hour Full Coverage Foundation Broad Spectrum SPF 15 Sunscreen Fair- Light Honey; Amazonian Clay 12-Hour Full Coverage Foundation Broad Spectrum SPF 15 Sunscreen Ivory; Amazonian Clay 12-Hour Full Coverage Foundation Broad Spectrum SPF 15 Sunscreen Light Beige; Amazonian Clay 12-Hour Full Coverage Foundation Broad Spectrum SPF 15 Sunscreen Light Neutral; Amazonian Clay 12-Hour Full Coverage Foundation Broad Spectrum SPF 15 Sunscreen Light Sand; Amazonian Clay 12-Hour Full Coverage Foundation Broad Spectrum SPF 15 Sunscreen Light-Medium Beige; Amazonian Clay 12-Hour Full Coverage Foundation Broad Spectrum SPF 15 Sunscreen Light-Medium Honey; Amazonian Clay 12-Hour Full Coverage Foundation Broad Spectrum SPF 15 Sunscreen Light-Medium Sand; Amazonian Clay 12-Hour Full Coverage Foundation Broad Spectrum SPF 15 Sunscreen Medium Honey; Amazonian Clay 12-Hour Full Coverage Foundation Broad Spectrum SPF 15 Sunscreen Medium Sand; Amazonian Clay 12-Hour Full Coverage Foundation Broad Spectrum SPF 15 Sunscreen Medium-Tan Honey; Amazonian Clay 12-Hour Full Coverage Foundation Broad Spectrum SPF 15 Sunscreen Tan Honey; Amazonian Clay 12-Hour Full Coverage Foundation Broad Spectrum SPF 15 Sunscreen Tan-Deep Sand; Amazonian Clay BB Tinted Moisturizer Broad Spectrum SPF 20 Sunscreen Fair; Amazonian Clay BB Tinted Moisturizer Broad Spectrum SPF 20 Sunscreen Ivory; Amazonian Clay BB Tinted Moisturizer Broad Spectrum SPF 20 Sunscreen Light; Amazonian Clay BB Tinted Moisturizer Broad Spectrum SPF 20 Sunscreen Light-Medium; Amazonian Clay BB Tinted Moisturizer Broad Spectrum SPF 20 Sunscreen Medium; Amazonian Clay BB Tinted Moisturizer Broad Spectrum SPF 20 Sunscreen Medium-Tan; Amazonian Clay BB Tinted Moisturizer Broad Spectrum SPF 20 Sunscreen Tan; Amazonian Clay BB Tinted Moisturizer Broad Spectrum SPF 20 Sunscreen Tan-Deep; Amazonian Colored Clay Foundation Broad Spectrum SPF 15 Sunscreen Deep; Amazonian Colored Clay Foundation Broad Spectrum SPF 15 Sunscreen Fair; Amazonian Colored Clay Foundation Broad Spectrum SPF 15 Sunscreen Light; Amazonian Colored Clay Foundation Broad Spectrum SPF 15 Sunscreen Medium; Amazonian Colored Clay Foundation Broad Spectrum SPF 15 Sunscreen Tan; Amazonic Natural Sunscreen SPF 30 Broad Spectrum UVA/UVB; Amerfresh Medicated; AmeriDerm PeriShield; Ammens Medicated; Ammens Medicated Powder Original; Ammens Medicated Powder Shower Fresh Formula; Amorepacific Color Control Cushion Compact; Amorepacific Color Control Cushion Compact No.102; Amorepacific Color Control Cushion Compact No.104; Amorepacific Color Control Cushion Compact No.106; Amorepacific Color Control Cushion Compact No.204; Amorepacific Color Control Cushion Compact No.208; Amorepacific Natural Protector; Amorepacific Resort Collection Sun Protection Cushion; Amorepacific Resort Collection Sun Protection Cushion Broad Spectrum SPF 30 Sunscreen; Amorepacific Time Response No. 102; Amorepacific Time Response No. 104; Amorepacific Time Response No. 106; Amorepacific Time Response No. 202; Amorepacific Time Response No. 204; Amorepacific Time Response No. 206; Amorepacific Time Response Skin Renewal No. 100; Amorepacific Time Response Skin Renewal No. 102; Amorepacific Time Response Skin Renewal No. 104; Amorepacific Time Response Skin Renewal No. 106; Amorepacific Time Response Skin Renewal No. 200; Amorepacific Time Response Skin Renewal No. 202; Amorepacific Time Response Skin Renewal No. 204; Amorepacific Time Response Skin Renewal No. 206; Andalou BB Untinted with SPF-30; Andalou BB sheer tint with SPF-30; Anesthetic Hemorrhoidal With Aloe; Anew Age-transforming Pressed Powder Poudre Pressee Transformation-age SPF.fps 15; Anew Solar Advance Eye and Lip Sunscreen; Angel of mine Diaper Rash; Anhydrous SPF 30; Anivy; Anorectal; Anti Monkey Butt Diaper Rash; Anti-Age Global Complete Anti-Aging SPF20; Anti-Aging Complex Eye Treatment Merle Norman; Anti-aging Armour Super Smart Skin-perfecting Beauty Fluid SPF 50; Anti-aging Complex Eye Treatment Broad Spectrum SPF 15; Anti-aging Oil Free Sunscreen SPF 30 Lotion; Anti-âge Global CRème Fondamentale Jour Fps 20; Antioxidant Primer; April Skin Magic Snow Cushion SPF50 PLUS (15g) (Natural Beige); April Skin Magic Snow Cushion SPF50 PLUS (15g) (Pink Beige); Aqua Aura Moist Finish Pact; Aqua SPF 50; Aqua Soleil CRème Visage Et Corps Fps 35; Aqua Soleil CRème Visage Fps 30; Aqua Soleil Creme Visage Et Corps Fps 35; Aquaphor Healing Diaper Rash; Aquaphor Healing Fast Relief Diaper Rash; Aquasport; Arbonne Abc Arbonne Baby Care Sunscreen SPF 30; Arbonne Abc Arbonne Baby Care Water-resistant Sunscreen SPF 30; Arbonne Baby Care Sunscreen SPF 30; Arbonne International Abc Arbonne Children's Care Sunscreen SPF 30+; Arbonne International Liquid Sunshine Tan Enhancer Sunscreen SPF 15; Arbonne Liquid Sunshine SPF15; Arbonne Liquid Sunshine Tan Enhancer With SPF 15; Arbonne RE9 Advanced for Men Facial Moisturizer SPF 20; Area Foundy Cover; Area Foundy Natural; Arex Sinsin Pas; Argan Stem Cell BB Benefit Balm Un-Tinted SFP 30; Argan Wear Ultra Nourishing Argan Oil BB Cream; Argan Wear Ultra-Nourishing Argan Oil BB Concealer; Arllin Golden Combination Charisma CC; Arsainte Eco Therapy Super Repair Sun Spf45; Artistry Balancing Foundation; Artistry Beauty Balm Perfecting Primer SPF 35 Broad Spectrum Sunscreen; Artistry Essentials Balancing; Artistry Essentials Balancing Lotion; Artistry Essentials Hydrating Lotion; Artistry Essentials Hydrating SPF 15; Artistry Exact Fit Beauty Balm Perfecting Primer; Artistry Flawless Coverage Powder Foundation; Artistry Hydrating Foundation; Artistry Hydrating Foundation SPF 20 UBV/UVA; Artistry Hydro-V Sheer Weightless Foundation SPF 15 Broad Spectrum Sunscreen; Artistry Ideal Dual Powder Foundation Refill; Artistry Ideal Radiance Illuminating CC SPF 50 Broad Spectrum Med/Deep; Artistry Ideal Radiance Illuminating CC SPF 50 Broad Spectrum Sunscreen Deep; Artistry Ideal Radiance Illuminating CC SPF 50 Broad Spectrum Sunscreen Light/Medium; Artistry Ideal Radiance Illuminating CC SPF 50 Broad Spectrum Sunscreen Medium; Artistry Ideal Radiance Illuminating CC SPF50 Broad Spectrum Sunscreen - Light; Artistry Ideal Radiance Illuminating Cc Cream; Artistry Light Reflective Lotion SPF 15; Artistry Vi Clarifying Balancing Moisturizer; Artists Touch BB 01 Light; Artists Touch BB 02 Medium; Atobos Baby Sun; Atobos Centella Baby Sun; Atomy Bb Broad Spectrum Spf30; Atomy Bb Cream SPF 30 Pa; Atomy Bb Spf30 Pa Plus Plus; Atomy Mineral Compact No.13; Atomy Mineral Compact No.21; Atomy Mineral Compact No.23; Atomy Mineral Compact No.25; Atomy Mineral Pact Spf35 Pa Plus Plus No.13; Atomy Mineral Pact Spf35 Pa Plus Plus No.21; Atomy Mineral Pact Spf35 Pa Plus Plus No.23; Atomy Mineral Pact Spf35 Pa Plus Plus No.25; Atomy Sun Beige Spf50 Plus Pa Plus Plus Plus; Atomy Sun Cream SPF 50 Pa; Atomy Sun Spf50 Plus Pa Plus Plus Plus; Atomy Sunscreen Beige Broad Spectrum Spf50 Plus; Atomy Sunscreen Beige SPF50 PLUS; Atomy Sunscreen White Broad Spectrum Spf50 Plus; Atomy Sunscreen White SPF50 PLUS; Attends Advanced Barrier; Attends Daily Barrier; Attitude; Attitude Mineral Sunscreen; Attitude Mineral Sunscreen Sensitive Skin Care Family; Attitude Mineral Sunscreen Sensitive Skin Care Little Ones; Attitude Mineral Sunscreen Vanilla Blossom; Australian Gold BROAD SPECTRUM SPF 50; Australian Gold BROAD SPECTRUM SPF30; Australian Gold Botanical Mineral Sunscreen Broad Spectrum SPF 30; Australian Gold Botanical Mineral Sunscreen Broad Spectrum SPF 50; Australian Gold Botanical Sunscreen SPF 50 Kids Broad Spectrum; Australian Gold Botanical Tinted Face Mineral Sunscreen Broad Spectrum SPF 50; Australian Gold Hello Kitty BROAD SPECTRUM SPF 45; Australian Gold Hello Kitty Mineral Faces Sunscreen; Avail Lip Balm with Sunscreen; Avalon Organics Baby Protective Zinc Diaper Balm; Avalon Organics COQ10 Repair Wrinkle Defense Broad Spectrum SPF15; Avalon Organics Essential Lift; Avalon Organics Essential Lift Firming Moisturizer SPF15; Avalon Organics Lavender Luminosity Moisture Plus SPF15; Avalon Organics Vitamin C Renewal Moisture Plus SPF15; Aveeno Active Naturals Natural Protection Broad Spectrum SPF30; Aveeno Active Naturals Natural Protection MineralBlock SPF 30; Aveeno Anti Itch Concentrated; Aveeno Baby Mommy and Me Gift Set; Aveeno Baby Natural Protection Face Sunscreen Broad Spectrum SPF50; Aveeno Baby Natural Protection MineralBlock SPF 50plus Face; Aveeno Baby Natural Protection MineralBlock Sunblock SPF 30; Aveeno Baby Natural Protection Sunscreen Broad Spectrum SPF 50; Aveeno Baby Organic Harvest Diaper Rash; Aveeno Baby Soothing Relief Diaper Rash Fragrance Free; Aveeno Baby Sunblock Lotion SPF 45; Aveeno Baby continuous Protection sensitive skin Face Sunscreen Broad Spectrum SPF50; Aveeno Baby continuous protection sensitive skin Sunscreen Broad Spectrum SPF50; Aveeno Calamine and Pramoxine Hydrochloride Anti Itch; Aveeno Natural Protection Sunscreen Broad Spectrum SPF 50; Aveeno ultra-calming daily moisturizer Broad Spectrum SPF 30; Averteax; Avon Anew Line Eliminator Neo-retinol Line Plumper SPF 15; Avon Extralasting; Awaken by Quality Choice Absolute Daily Moisturizer Broad Spectrum SPF 15 Sunscreen; BABY Specialty Cream; BANILA CO Prime Primer Fitting BB Light Beige; BANILA CO Prime Primer Fitting BB Natural Beige; BB Broad Spectrum SPF 15 Light; BB Broad Spectrum SPF 15 Light to Medium; BB Broad Spectrum SPF 15 Medium; BB Care Ultra Light Sunscreen Broad Spectrum SPF 50 Plus; BB Tinted Treatment 12-hour Primer Broad Spectrum SPF 30 Sunscreen Fair; BB Tinted Treatment 12-hour Primer Broad Spectrum SPF 30 Sunscreen Light; BB Tinted Treatment 12-hour Primer Broad Spectrum SPF 30 Sunscreen Medium; BB Tinted Treatment 12-hour Primer Broad Spectrum SPF 30 Sunscreen Medium-Tan; BB Tinted Treatment 12-hour Primer Broad Spectrum SPF 30 Sunscreen Tan; BB Tinted Treatment 12-hour Primer Broad Spectrum SPF 30 Sunscreen Tan Deep; BB fit Perfect 24 BB 01; BB fit Perfect 24 BB 02; BB fit Sheer BB; BIOSOLIS Extreme Fluid UVA Sunscreen Broad Spectrum Face and Neck SPF50; BIOSOLIS Face UVA Sunscreen Broad Spectrum SPF30; BIOSOLIS Sun Milk UVA Sunscreen Face and Body Broad Spectrum SPF15; BIOSOLIS Sun Milk UVA Sunscreen Face and Body Broad Spectrum SPF30; BIOSOLIS Sun Milk UVA Sunscreen Face and Body Broad Spectrum SPF50 KIDS; BOA VIDA Calvida; Babies Sunblock Lotion SPF 45; Baby Anti Monkey Butt Diaper Rash; Baby Blanket BROAD SPECTRUM SPF 50; Baby Blanket Sunscreen Stick for Babies; Baby Bum SPF50 Mineral Sunscreen; Baby Butz; Baby Compliments Zinc Oxide Cream - 15%; Baby Diaper; Baby Diaper Rash; Baby Diaper Rash Cream; Baby Lotion SPF 50; Baby Love Diaper Rash; Baby Magic Diaper Rx; Baby Magic Medicated Patty Cake; Baby Natural Mineral Sunscreen Broad Spectrum SPF 30; Baby Pure Gentle SunStick SPF 60 CVS; Baby SPF 60 Sunscreen; Baby Sunscreen SPF 30; Baby blanket BROAD SPECTRUM SPF 50; Baby's Own Ointment 11.3%; BabyGanics Sunscreen 30 SPF; BabyGanics Sunscreen 30SPF; BabyGanics Sunscreen 50 SPF; BabyGanics Sunscreen 50SPF; BabySpa Shea Butter Diaper; Babyganics Diaper Rash; Babyganics SPF 50; Babys Butt Aid; Babys Butt Care Diaper Rash; Bacmin; Badger Baby SPF 30 Sunscreen; Badger Damascus Rose Broad Spectrum SPF 20 Face Sunscreen; Badger Damascus Rose Broad Spectrum SPF 20 Face Sunscreen - Sheer Tint; Badger Damascus Rose Broad Spectrum SPF 25 Face Sunscreen; Badger Damascus Rose Broad Spectrum SPF 25 Face Sunscreen - Sheer Tint; Badger Diaper; Badger Essential Baby Set; Badger Kids SPF 30 Sunscreen; Badger Lavender SPF 30 Sunscreen; Badger SPF 15 Sunscreen Lip Balm; Badger SPF 34 Anti-Bug Sunscreen; Badger SPF 35 All Season Face; Badger SPF 35 Kids All Season; Badger SPF 35 Sport Sunscreen; Badger SPF30 Unscented Sunscreen Unscented; Badger Sport SPF 35 Sunscreen; Badger Tinted Unscented SPF 30 Sunscreen; Badger Unscented Broad Spectrum SPF 25 Zinc Oxide Sunscreen; Badger Unscented SPF 15 Sunscreen; Badger Unscented SPF 30 Sunscreen; Badger Zinc Oxide Diaper; Bain De Soleil Protection Creme SPF 25; Bain De Soleil Protection Kids Lotion SPF 25; Balmex Adult Care Rash; Balmex Diaper Rash; Balmex Diaper Rash Stick; Banana Boat; Banana Boat Baby SPF 50; Banana Boat Natural Reflect Sunscreen BABY SPF 50; Banana Boat Natural Reflect Sunscreen KIDS SPF 50; Banana Boat Natural Reflect Sunscreen SPF 50 Plus; Banana Boat Vitaskin Sunscreen SPF 50 Lotion; BareMinerals Bronzing Mineral Veil; BareMinerals Dark Matte Dark Matte; BareMinerals Deepest Deep matte Deepest Deep Matte; BareMinerals Fair Matte Fair Matte; BareMinerals Fairly Light matte Fairly Light Matte; BareMinerals Golden Dark matte Golden Dark Matte; BareMinerals Golden Deep matte Golden Deep Matte; BareMinerals Golden Medium matte Golden Medium Matte; BareMinerals Golden Tan matte Golden Tan Matte; BareMinerals Light Matte Light Matte; BareMinerals Medium Beige matte Medium Beige Matte; BareMinerals Medium Dark matte Medium Dark Matte; BareMinerals Medium Deep matte Medium Deep Matte; BareMinerals Medium Matte Medium Matte; BareMinerals Medium Tan matte Medium Tan Matte; BareMinerals Mineral Veil; BareMinerals Multi-Tasking SPF 20 Concealer Dark Bisque; BareMinerals Tan Matte Tan Matte; BareMinerals Tinted Mineral Veil; BareMinerals Warm Tan Warm Tan Matte; Barrier Protectant Cream; Basic Day Cream With Uv-protection; Basic Protection With Vitamin E; Bature Uv Protect Sunscreen; Baza Protect; Baza Protect II; Baza-pro Cream; Bb Cream Broad Spectrum Spf30; Be Beautiful Makeup Base; Be Beautiful Natural BB Cream; Beaute de Cell Homme Perfect Sun-Shield SPF 50 PA; Beaute de Cell Lifting-Up Multi Cream SPF 30 PA; Beautify Worlds Best Natural Sunscreen Broad Spectrum SPF 30; Beauty Counter Dew Skin Moisturizer Dark SPF 20; Beauty Counter Dew Skin Moisturizer Deep SPF 20; Beauty Counter Dew Skin Moisturizer Fair SPF 20; Beauty Counter Dew Skin Moisturizer Light SPF 20; Beauty Counter Dew Skin Moisturizer Medium SPF 20; Beauty Counter Protect - Sweet Tooth SPF30; Beauty Counter Protect All over Sunscreen SPF30; Beauty Counter Protect Lip SPF15; Beauty Hydrating; Beauty Without Cruelty - Broad Spectrum SPF 17 Vitamin C with CoQ10; Beauty Without Cruelty - Broad Spectrum SPF 30; Becca Mineral SPF Primer; Beevenom Bb Spf50plus Pa Plus Plus Plus; Beevenom Pact Spf50plus Pa Plus Plus Plus; Being Well Diaper Rash Creamy; Bella Pelle SPF 30; Bellagio Childrens Sunscreen SPF 45; Bellagio Sunscreen For Face SPF 30; Bellagio Sunscreen SPF 45; Belli Pure Radiance Facial Sunscreen Tinted Protection SPF 25; Belucie Luxury Essential Twin Pact NO21 SPF25 PA PLUS PLUS; Belucie Luxury Essential Twin Pact NO23 SPF25 PA PLUS PLUS; Benson Bottom Paint; Best Choice Anti-Itch Clear; Best Choice Medicated Calamine; Beyond BB Perfecting Foundation Broad Spectrum SPF 15 Sunscreen Deep; Beyond BB Perfecting Foundation Broad Spectrum SPF 15 Sunscreen Fair; Beyond BB Perfecting Foundation Broad Spectrum SPF 15 Sunscreen Light; Beyond BB Perfecting Foundation Broad Spectrum SPF 15 Sunscreen Medium; Beyond BB Perfecting Foundation Broad Spectrum SPF 15 Sunscreen Tan; Beyond Protected Daily Beauty Fluid Broad Spectrum SPF 30; Beyond Protected Daily Beauty Fluid Oil Free Broad Spectrum SPF 30; Beyond Protected Daily Beauty Fluid Sheer Tint Broad Spectrum SPF 30; Beyond Young Bling Bling Spf35; Bien Vita Multi UV Primer Plus; Biggreen Everyday Sun; Bilboa Kids Sunscreen SPF 50 Plus; Bio Damascena Rose Otto Face Sunscreen; BioDCream; Bioelements Sun Diffusing Protector SPF 15; Biore Skin Preservation Dual Fusion Moisturizer Plus SPF 30; Black Stick; Blemish Lab Bye Pore Bb Spf30 Pa Plus Plus; Blue Lizard Baby; Blue Lizard Face; Blue Lizard Regular; Blue Lizard Sensitive Sunscreen; Blue Lizard Sport; Blue Lizard Sunscreen Australian Formula; Blue Stick; Blurred Lines CC Creme Broad Spectrum SPF 20 Shade 01 Light; Blurred Lines CC Creme Broad Spectrum SPF 20 Shade 02 Medium; Blurred Lines CC Creme Broad Spectrum SPF 20 Shade 03 Medium/Dark; Bobbi Brown CC BROAD SPECTRUM SPF 25; Bobbi Brown Color Correct Cream SPF 35; Bobbi Brown Intensive Skin Serum Foundation Broad Spectrum SPF 35; Bobbi Brown Intensive Skin Serum Foundation SPF 40 Lychee, Bamboo Grass & Cordyceps Extracts; Body; Body Care Gift Set; Body Series Moisture Stick + SPF 30; Bodyglide Sun Formula SPF-25; Booty Goo; Boscia B.B. LIGHT Broad Spectrum SPF 27 PA Self-Adjusting Shade; Boscia BB BRONZE Broad Spectrum SPF 27 PA Self-Adjusting Shade; Boscia BB Broad Spectrum SPF 27 PA Self Adjusting Shade; Boscia Daily Defense Sunscreen Broad Spectrum SPF 50 PA; Botanical Fresh Bb Set Spf30 Pa Plus Plus; Botanical Fresh Bb Spf30 Pa Plus Plus; Botanical Green Tea Pore Bb 01 Light Beige; Botanical Green Tea Pore Bb 02 Natural Beige; Botanical Moist Pact Spf30 Pa Plus Plus Plus 21; Botanical Moist Pact Spf30 Pa Plus Plus Plus 23; Botanical Pure Pact Spf25 Pa Plus Plus; Botanical Soothing SPF-30; Botanical Vanilla Pact Spf30 Pa Plus Plus Plus 21 Vanilla Nude; Botanical Vanilla Pact Spf30 Pa Plus Plus Plus Vanilla Natural; Botanical Vanilla Spf25 Pa Plus 01; Botanical Vanilla Spf25 Pa Plus 02 Vanilla Pink; Boudreauxs; Breathable Concealer Light; Breathable Concealer Medium; Breathable Concealer Tan; Bright Skin Moisturizer SPF 30; Brighten SPF 30; Brightening Dynamics Traveling Kit Jafra; Brightening Perfector SPF 20 Sunscreen; Brightening Powder Compact Foundation SPF 20; British Army Foot Pwr; Broad Spectrum Face and Body Sunscreen Stick SPF 30; Broad Spectrum SPF 15 Sunscreen CVS; Broad Spectrum SPF 30 Mineral Sunscreen; Broad Spectrum SPF 30 Up The Anti; Broad Spectrum SPF 30 for Face and Body; Broad Spectrum SPF 50 Mineral Sunscreen; Broad Spectrum Water Resistant SPF 30 Mineral Sunscreen; Broad Spectrum Water Resistant SPF 50 Mineral Sunscreen; Broad Spectrum Water Resistant SPF 50 Mineral Sunscreen Babies; Broad Spectrum Water Resistant SPF 50 Mineral Sunscreen Faces; Broccoli Sun Spf42 Pa Plus Plus Plus; Bronze Booster BB Cream SPF 20; Bronzing Mineral Beauty Balm SPF 15; Bronzing Perfector SPF 20 Sunscreen; Brush on Block Mineral Sunscreen Broad Spectrum SPF 30; Budpak Diaper Rash; BullFrog Land Sport SPF 50 Quik; Bum Ease; Burn Out SPF-30 Sunscreen; Burts Bees Baby Bee Diaper Rash; Buttiezzz Daily; Buttiezzz Intense; By Pharmicell Lab Prestige BB SPF30 PA PLUS PLUS; Bye Bye Foundation Full Coverage Moisturizer SPF 50 Deep; Bye Bye Foundation Full Coverage Moisturizer SPF 50 Fair; Bye Bye Foundation Full Coverage Moisturizer SPF 50 Fair Light; Bye Bye Foundation Full Coverage Moisturizer SPF 50 Light; Bye Bye Foundation Full Coverage Moisturizer SPF 50 Light Medium; Bye Bye Foundation Full Coverage Moisturizer SPF 50 Medium; Bye Bye Foundation Full Coverage Moisturizer SPF 50 Medium Tan; Bye Bye Foundation Full Coverage Moisturizer SPF 50 Neutral Medium; Bye Bye Foundation Full Coverage Moisturizer SPF 50 Neutral Tan; Bye Bye Foundation Full Coverage Moisturizer SPF 50 Rich; Bye Bye Foundation Full Coverage Moisturizer SPF 50 Rich Honey; Bye Bye Foundation Full Coverage Moisturizer SPF 50 Tan; C-Nate DHA; CAREALL Zinc Oxide; CC Cream Daily Correct Broad Spectrum SPF 40 Sunscreen Fair to Light Supergooop; CC Cushion Compact SunScreen - Fair / light; CC Cushion Compact SunScreen - Medium / Deep; CC Cushion Compact SunScreen - light / medium; CC Daily Correct Broad Spectrum SPF 35 Sunscreen Light to Medium Supergoop; CC Daily Correct Broad Spectrum SPF 35 Sunscreen Medium to Dark Supergoop; CD DIORSKIN CITY DEFENSE Toxin Shield Pollution UV Advanced Protection with sunscreen Broad Spectrum SPF50; CD DIORSNOW Bloom Perfect Brightening Perfect Skin Creator With Sunscreen Broad Spectrum SPF35; CD DIORSNOW UV SHIELD Brightening Illuminating UV Protection With Sunscreen TRANSLUCENT BROAD SPECTRUM SPF 50; CD DiorSnow UV Shield Transluscent - SPF50; CLEMATIS FLUFFY MATTE CUSHION 25 Soft Beige; CLEMATIS FLUFFY MATTE CUSHION 27 Beige; CLEMATIS Fluffy Matte Cushion 21 Light Beige; CLEMATIS Fluffy Matte Cushion 23 Natural Beige; CLEMATIS Morning dew BB 21 Light Beige; CLEMATIS Morning dew BB 23 Natural Beige; CRème De Soin Solaire Mer Et Tropiques Visage; CRème Solaire Régions Sensibles Fps 30; CVS Calamine Plus; CVS Clear Zinc SPF 50; CVS Health 60 Plus Sensitive Skin Sun; CVS Health AM Moisturizing Facial; CVS Health Baby SPF 50 Sun; CVS Health Diaper Rash; CVS Health SPF 50 Vanishing Zinc Sun; CVS Health SPF 50 Vanishing Zinc Sun Face; CVS Pharmacy Quick Relief; CVS Pharmacy Rash Cream; CVS Pharmacy Sunscreen SPF 45; CVS Zinc Oxide; CY BB Facial Hidratante con Color FPS 25 Multibeneficios; CY BETTER LIPS BALM Humectante para Labios con color FPS 18 (BLUSH CURE) - PINK; CY BETTER LIPS BALM Humectante para Labios con color FPS 18 (CHOCO THERAPY) - BROWN; CY BETTER LIPS BALM Humectante para Labios con color FPS 18 (DR. ROSE) - PINK; CY BETTER LIPS BALM Humectante para Labios con color FPS 18 (FLASHY KARMIN) - RED; CY BETTER LIPS BALM Humectante para Labios con color FPS 18 (FUXIA DEFENSE) - MAGENTA; CY BETTER LIPS BALM Humectante para Labios con color FPS 18 (GET WELL PEACH) - PINK; CY BETTER LIPS BALM Humectante para Labios con color FPS 18 (GRAPE CARE) - RED; CY BETTER LIPS BALM Humectante para Labios con color FPS 18 (INTENSIVE RED) - RED; CY BETTER LIPS BALM Humectante para Labios con color FPS 18 (LILAC ZIMMER) - LILAC; CY BETTER LIPS BALM Humectante para Labios con color FPS 18 (PINK STAR) - PINK; CY BETTER LIPS BALM Humectante para Labios con color FPS 18 (PURE OXYGEN) - BEIGE; CY BETTER LIPS BALM Humectante para Labios con color FPS 18 (SAND LIFE) - YELLOW; CY BETTER LIPS BALM Humectante para Labios con color FPS 18 (SHINY BROWN) - BROWN; CY BETTER LIPS BALM Humectante para Labios con color FPS 18 (SUN LIGHT) - BEIGE; Cacitrix; Caladrox; Caladryl; Calamine; Calamine Phenolated Topical Suspension; Calamine Plus; Calamine Plus Pramoxine HCl; Caldesene; Caldesene Baby; Caldesene Medicated Ointment; Calendula Diaper Rash; Calendula Diaper Rash Cream; Calendula Non-nano UV Protection Unscented SPF30PA; Calendula Non-nano Uv Protection Unscented Spf30; Califonia Aloe Ice Puff Sun Clear; California Aloe Fresh Sun Milk; California Aloe Power Lasting Sun Block; California Naturel All Natural Sunscreen SPF 30; California Naturel Lip Balm SPF 8; Calm It Down Kit; CalmaFX Moisture Barrier; Calming Diaper Rash; Calming Perfector SPF 20 Sunscreen; Calmitol Itching Relief Ont; Calmodrox; Calmol 4; Calmoseptine; Camera Ready Bb Eyes Bs SPF 15; Camera Ready Bb Water Broad Spectrum SPF 30; Candy Doll Basic Bright Pure Base Mint Green; Candy Doll Bright Pure Base; Candy Doll White Pure Powder Normal; Candy Doll White Pure Powder Shiny; Cape Cod Sunscreen Plus SPF 30; Capent Diaper Rash; Cappuccino Long Wear Makeup Broad Spectrum SPF 20; Cappuccino Radiance Foundation Broad Spectrum SPF 20 - Tawny JAFRA; Capture Totale Dreamskin Perfect Skin Cushion Youth Skincare Perfect Complexion Creator With Sunscreen Broad Spectrum SPF 50 010; Capture Totale Dreamskin Perfect Skin Cushion Youth Skincare Perfect Complexion Creator With Sunscreen Broad Spectrum SPF 50 012; Capture Totale Dreamskin Perfect Skin Cushion Youth Skincare Perfect Complexion Creator With Sunscreen Broad Spectrum SPF 50 020; Capture Totale Dreamskin Perfect Skin Cushion Youth Skincare Perfect Complexion Creator With Sunscreen Broad Spectrum SPF 50 030; Capture Totale Dreamskin Perfect Skin Cushion Youth Skincare Perfect Complexion Creator With Sunscreen Broad Spectrum SPF 50 21; Capture Totale Dreamskin Perfect Skin Cushion Youth Skincare Perfect Complexion Creator With Sunscreen Broad Spectrum SPF 50 25; Capture Totale Dreamskin Perfect Skin Cushion Youth Skincare Perfect Complexion Creator With Sunscreen Broad Spectrum SPF 50 40; Caramel Latte Tinted Moisturizer; Caramel Latte Tinted Moisturizer Broad Spectrum SPF 25 Sunscreen Light To Medium; Caramel Long Wear Makeup Broad Spectrum SPF 20; Caramel Radiance Foundation Broad Spectrum SPF 20 - Tawny JAFRA; Carboseptol; Care Day Cream With Uv-protection; CareCella Hydration BB Cream; Cargo Tinted Moisturizer SPF 20; Carlesta; Carlesta Adult Skin Protectant; Carrington Moisture Barrier; Cathycat Essence Sun Bb; Catrin Diamond Mineral Foundation; Cc Complete Correction Sunscreen Broad Spectrum SPF 50, 20 Beige; Cc Complete Correction Sunscreen Broad Spectrum SPF 50, 30 Beige; Cc Complete Correction Sunscreen Broad Spectrum SPF 50, 40 Beige; Cc Cream Correction Complète Complete Correction SPF 50; Cc Creme Color Correction Creme; Cc Veil Beauty Fluid Foundation Fair; Cc Veil Beauty Fluid Foundation Light; Cc Veil Beauty Fluid Foundation Medium; Cc Veil Beauty Fluid Foundation Rich; Cc Veil Beauty Fluid Foundation Tan; Celebration Foundation Deep; Celebration Foundation Fair; Celebration Foundation Light; Celebration Foundation Medium; Celebration Foundation Medium Tan; Celebration Foundation Rich; Celebration Foundation Tan; Cell Boosting Bb 01 Light Beige; Cell Boosting Bb 02 Natural Beige; Cell Boosting Bb 03 Sand Beige; Cell Boosting Bb Spf30 01 Light Beige; Cell Boosting Bb Spf30 02 Natural Beige; Cell Boosting Bb Spf30 07 Sand Beige; Cellex-C Sun Care; Cellex-C Sun Care SPF 50+; Cellex-C Sun Shade; Cellex-C Suncare SPF 15; Cellex-C Suncare SPF 30; Cellex-C Suncare SPF 32; Cellex-C Sunshade SPF 50+; Cellpium shield sun bb; Cellular Day Defense Firming Complex SPF 15; Cellular Day Defense Firming SPF 25; Cellular Swiss Ice Crystal Transforming Cream SPF 30 - Beige; Cellular Swiss Ice Crystal Transforming Cream SPF 30 - Nude; Cellular Swiss Ice Crystal Transforming Cream SPF 30 - Rose; Cellular Swiss Ice Crystal Transforming Cream SPF 30 - Tan; Cellular Swiss Protection Veil Broad Spectrum SPF 50; Cellular Swiss Sunscreen Broad Spectrum SPF 30; Cellular Swiss UV Protection Veil Sunscreen Broad Spectrum SPF 50 La Prairie; CeraVe AM BROAD SPECTRUM SUNSCREEN SPF 30; CeraVe AM Sunscreen Broad Spectrum 30 SPF; CeraVe Baby Diaper Rash Cream; CeraVe Baby Sunscreen Broad Spectrum SPF 45; CeraVe Skin Renewing Day Cream with Broad Spectrum SPF 30 Sunscreen; CeraVe Sunscreen Broad Spectrum SPF 30 BODY; CeraVe Sunscreen Broad Spectrum SPF 30 FACE; CeraVe Sunscreen Broad Spectrum SPF 50; CeraVe Sunscreen Broad Spectrum SPF 50 Body; CeraVe Sunscreen Broad Spectrum SPF 50 Face; Cerave; Cetaphil Redness Relieving Daily Facial Moisturizer with suncreen SPF 20; Cg Smoothers SPF 15 Tinted Moisture; Chamosyn; Chamosyn Paraben Free; Charmzone ALBATROSS Powder Sun (SPF41 PA); Charmzone Natural Skinade BB Cream (SPF20 PA); Chem Free SPF 30; Christina Moss Naturals Natural Sunscreen SPF 30; CitraNatal 90 DHA; CitraNatal DHA; CitraNatal Rx; City Block Sheer SPF 25 Oil Free Daily Face Protector; Ck One Airlight Pressed Powder SPF 15 Bisque 400; Ck One Airlight Pressed Powder SPF 15 Cappuccino 700; Ck One Airlight Pressed Powder SPF 15 Caramel 700; Ck One Airlight Pressed Powder SPF 15 Fair 200; Ck One Airlight Pressed Powder SPF 15 Honey 600; Ck One Airlight Pressed Powder SPF 15 Porcelain 100; Ck One Airlight Pressed Powder SPF 15 Sand 300; Ck One Airlight Pressed Powder SPF 15 Tan 500; Clamue Healthy Fresh BB Cream Light; Clamue Healthy Fresh BB Cream Light Medium; Clamue Healthy Fresh BB Cream Medium; Clamue Healthy Fresh BB Cream Medium Deep; Clapiel Defense Sunblock; Clapiel Mineral CC; Clarifying Complexion Protection; Clarins Broad Spectrum SPF 30 Sunscreen for Sun-Sensitive Areas; Clarins Broad Spectrum SPF 50 Sunscreen Care Milk for Children; Clarisonic Mia 2 Facial Sonic Cleansing Brush with Supergoop Sun Essentials; Cle De Peau Beaute Uv Protection; Cle De Peau Beaute Uv Protective; Cle De Peau Beaute Uv Protective Very High Protection for Body; Cle De Peau Beaute Uv Protective for Body; Clear Daylight Radiance Moisturizer Broad Spectrum SPF 32; Clear Sunscreen Stick; Clematis Base Cushion; Cler Zinck 45 SPF Sunblock; Climatik SPF 30 Fps Lip Balm Baume A Levres; Clinique Advanced Stop Signs Eye Preventive Cream SPF 15; Clinique Advanced Stop Signs Eye Preventive Cream Spf15; Clinique Age Defense Bb Cream SPF 30; Clinique Broad Spectrum SPF 30 Mineral Sunscreen Fluid for Face; Clinique Broad Spectrum SPF 30 Mineral Sunscreen for Body; Clinique City Block Sheer Oil-free Daily Face Protector 15 SPF; Clinique City Block Sheer Shimmer Oil-free Daily Face Protector SPF 15; Clinique City Block Sheer Tint Oil-free Daily Face Protector SPF 15; Clinique Cx Protective Base SPF 40; Clinique Even Better Glow Light Reflecting Makeup SPF 15; Clinique Even Better Makeup SPF 15; Clinique Face Zone Sun Block 30 SPF; Clinique High Impact Lip Colour SPF 15; Clinique Moisture Surge Cc Cream Hydrating Colour Corrector SPF 30; Clinique Redness Solutions Daily Protective Base SPF 15; Clinique Redness Solutions Makeup SPF 15 With Probiotic Technology; Clinique Repairwear Day SPF 15 Intensive Cream; Clinique Repairwear Day SPF 15 Intensive Cream Very Dry Skin Formula; Clinique Repairwear Day SPF 15 Intensive Lotion; Clinique SPF 30 With Solarsmart+ Oil-free Face Cream; Clinique SPF 50 Broad Spectrum Mineral Sunscreen Fluid for Face; Clinique Sun-care Lip/eye 30 SPF Sun Block; Clinique Super City Block Oil-free Daily Face Protector SPF 40; Clinique Superbalanced Compact Makeup SPF 20; Clinique Superbalanced Silk Makeup Broad Spectrum SPF 15; Clinique Superbalanced Silk Makeup SPF 15; Clinique for Men Uv Defense Broad Spectrum Spf50; Clorox CareConcepts Rash Relief; Clorox Careconcepts Rash Relief Ointment; Clé De Peau Beauté 30 émulsion Protectrice Uv Pour Le Corps; Clé De Peau Beauté 50+ CRème Protectrice Uv; Clé De Peau Beauté 50+ émulsion Très Haute Protection Uv Pour Le Corps; Cmc Shield Skin Protectant; Cmc Zinc Oxide; CoTZ SPF 35 Sunscreen; CoTZ SPF 58 Sunscreen; Cocoa Latte Tinted Moisturizer; Cocoa Latte Tinted Moisturizer Broad Spectrum SPF 25 Sunscreen Medium To Dark; Cold Sore Support; Collagen Hd Cover Bb Spf27 Pa Plus Plus; Collagen Hd Foundation Spf30 Pa Plus Plus 21 Soft Beige; Collagen Hd Foundation Spf30 Pa Plus Plus 23 Medium Beige; Collagen Hd Make Up Base Spf30 Pa Plus Plus 02 Violet; Collagen Resurgence Stemcell Bb; Color Correcting Primer Green; Color Correcting Primer Purple; Color Me With KidsUV SPF30; Complete Beauty; Complexion Brightener SPF20; Complexion Corrector SPF20; Complexion Enhancer SPF15; Complexion Perfector BB SPF20; Complexion Perfector BB SPF20 Medium; Condition and Enhance Healthy Skin Protection SPF 35; Condition and Enhance Physical Uv Block SPF 32; Condition and Enhance System Full-size Non-surgical; Condition and Enhance System Travel-size Non-surgical; Condition and Enhance System Travel-size Surgical; Confidence In A Compact Skin-Transforming Full Coverage Solid Super Serum SPF 50 Deep; Confidence In A Compact Skin-Transforming Full Coverage Solid Super Serum SPF 50 Fair; Confidence In A Compact Skin-Transforming Full Coverage Solid Super Serum SPF 50 Light; Confidence In A Compact Skin-Transforming Full Coverage Solid Super Serum SPF 50 Medium; Confidence In A Compact Skin-Transforming Full Coverage Solid Super Serum SPF 50 Medium-Tan; Confidence In A Compact Skin-Transforming Full Coverage Solid Super Serum SPF 50 Rich; Confidence In A Compact Skin-Transforming Full Coverage Solid Super Serum SPF 50 Tan; Conju Princess UV Sun Block; Consious Sunscreen, Protect-respect SPF-40; Consious Sunscreen, Protect-respect, Face SPF-40; Continuum Unifying Lotion I; Continuum Unifying Lotion II; Coppertone Defend and Care Face Clear Zinc SPF 50; Coppertone Defend and Care Face Sensitive Skin SPF 50; Coppertone Kids SPF 50; Coppertone Sensitive Skin SPF 50; Coppertone Spectra 3 Babies Lotion SPF 50; Coppertone Spectra 3 Kids Lotion SPF 50; Coppertone Spectra 3 Lotion SPF 30; Coppertone Spectra 3 Lotion SPF 50; Coppertone Sunscreen Lotion SPF 50 Defend & Care Face Sensitive Skin; Coppertone Sunscreen Lotion SPF 50 Defend & Care Sensitive Skin; Coppertone Tattoo Guard SPF 50; Coppertone Water Babies Stick SPF 50; Coppertone waterBABIES Pure and Simple SPF 50; Coral Safe Broad Spectrum SPF 30; Coral Safe SPF-30 Broad Spectrum Sunscreen; Correcting Moisturizer SPF 15; Correway Sunscreen (Waterproof); Cottontails Diaper Rash; Cotz Face (For Lighter Skin Tones) SPF 40 Sunscreen; Cotz Face (Natural Skin Tone) SPF 40 Sunscreen; Cotz Lip Balm Lip Balm/Sunscreen; Cotz Pediatric SPF 40 Sunscreen; Cotz Plus SPF 58 Sunscreen; Cotz Pure SPF 30 Sunscreen; Cotz Sensitive SPF 40 Sunscreen; Cover 10 Perfect BB Light; Cover 10 Perfect BB Natural; Cover 10 Perfect Foundation BE10; Cover 10 Perfect Foundation BE20; Cover 10 Perfect Foundation BP15; Cover Fx Cc; Cover Girl Advanced Radiance Age Defying Sheer Moisturizing Make-UP; Cover Girl Outlast All-day Liquid Makeup; Cover Girl Outlast Liquid Make-UP - Basecoat; Cover Recover SPF 30 Beige; Cover Recover SPF 30 Cocoa; Cover Recover SPF 30 Cream; Cover Recover SPF 30 Ivory; Cover Recover SPF 30 Sand; Cover Recover SPF 30 Taupe; Cover Recover SPF 30 Tawny; Cover Recover SPF 30 Warm Beige; Cover-Expert Sunscreen Broad Spectrum SPF 15 No.1 Fair Beige; Cover-Expert Sunscreen Broad Spectrum SPF 15 No.11 Amber Brown; Cover-Expert Sunscreen Broad Spectrum SPF 15 No.12 Warm Copper; Cover-Expert Sunscreen Broad Spectrum SPF 15 No.2 Neutral Beige; Cover-Expert Sunscreen Broad Spectrum SPF 15 No.3 Cream Beige; Cover-Expert Sunscreen Broad Spectrum SPF 15 No.4 Rosy Beige; Cover-Expert Sunscreen Broad Spectrum SPF 15 No.5 Peach Beige; Cover-Expert Sunscreen Broad Spectrum SPF 15 No.7 Vanilla Beige; Cover-Expert Sunscreen Broad Spectrum SPF 15 No.9 Honey Beige; Covergirl Smoothers Tinted Moisturizer BB Broad Spectrum SPF 21 (all shades); Covergirl Smoothers Tinted Moisturizer BB Cream Broad Spectrum SPF 15 (all shades); Covergirl cgsmoothers BB Tinted Moisturizer Broad Spectrum SPF 21 (all shades); Creal Zink Sunscreen SPF 50 Well at Walgreens; Creamy Diaper Rash; Creme Aquamucine Cream Fps 15 SPF; Creme Douceur Protectrice; Creme Ecran Total Elusun SPF 25; Creme Hiver  -  Creme; Creme Protection Solaire Large Spectre Uva-uvb Fps 45; Creme Solaire Ecran Total SPF 30-klorane; Critic Aid Skin; Critic-aid Skin Paste; Curad Essentials Skin Paste; Cuticura Medicated Body Powder; Cy Go Nude Base Ligera Acabo Natural Cobertura Media FPS 20; Cyberderm Every Morning Sun Whip SPF 25; Cyberwhite EX Extra Intensive Bb Creme Multi Action Formula Spf35; Cyzone Studio Look Base De Alta Cobertura Para El Rostro Con Fps 20 (light 1) - Beige; Cyzone Studio Look Base De Alta Cobertura Para El Rostro Con Fps 20 (light 2) - Beige; Cyzone Studio Look Base De Alta Cobertura Para El Rostro Con Fps 20 (medium 1) - Beige; Cyzone Studio Look Base De Alta Cobertura Para El Rostro Con Fps 20 (medium 2) - Beige; Cyzone Studio Look Base De Alta Cobertura Para El Rostro Con Fps 20 (medium 3) - Beige; Cyzone Studio Look Base De Alta Cobertura Para El Rostro Con Fps 20 (medium 4) - Brown; Cyzone Studio Look Base De Alta Cobertura Para El Rostro Con Fps 20 (obscure 1) - Brown; Cyzone better lips balm; D-one By Tamdoan Bb Light; D-one By Tamdoan Bb Medium; D-one By Tamdoan Sunscreen 50; DAY Daily Anti-Aging Moisturizing Face Broad Spectrum SPF 20 Sunscreen; DDM Calaclear; DDM Calagesic; DDM Calamine; DEAR KLAIRS Illuminating Supple Blemish Cream; DEARSIR UV Ultra Protection Sun; DERMAdoctor DD Cream Dermatologically Defining BB Cream Broad Spectrum SPF 30; DHC White Sunscreen; DIMETHICONE and ZINC OXIDE; DIORSNOW UV Shield White Reveal Moisturizing UV Protection Transluscent SPF 50; DIORSNOW White Reveal UVB Protection Sunscreen Pearly White SPF 50; DIORSNOW White Reveal UVB Protection Sunscreen Translucent SPF 50; DIY Booster SPF 30 Facial Serum Unscented; DNA Care Natural SPF 30; DONGINBI Red Ginseng Perfect Sun; DR. MERCOLA Sunscreen Broad Spectrum SPF-15; DR. MERCOLA Sunscreen Broad Spectrum SPF-30; DR. MERCOLA Sunscreen SPF-50; DR.G Moist Ample CC Cushion SPF50 Plus PA Plus Plus Plus Light Beige; DRH Intensive Sun Block; DTRT Boys Be Bold BB SPF 25; DTRT Get Ready BB SPF 50; Daily Defense Antioxidant Day Broad Spectrum SPF 30; Daily Defense SPF 15 Jafra; Daily Defense SPF 45; Daily Deflector Waterlight SPF 50; Daily Face Broad Spectrum; Daily Light Guard Defense Fluid Broad Spectrum SPF 30; Daily Offense SPF 30; Daily Protecting SPF15 Sunscreen; Daily Protection Moisturizing Face Lotion (SPF 30); Daily Protezione Broad Spectrum SPF30 Sunscreen; Daily Replenishing SPF 30; Daily SPF 20 Oleander Face Cream; Daily UV Protector SPF 30 Sunscreen; Dark CC creme Broad Spectrum SPF 15 JAFRA; Dark Daylight Tinted Radiance Moisturizer Broad Spectrum SPF 32; Dark Foundation SPF 15; Dark Spot Sun Defense Broad Spectrum SPF 50; Day Renewal Moisturizing Complex With SPF 20; Daydream Mineral Makeup Primer SPF 30 Broad Spectrum; Daylight Tinted Radiance Moisturizer Broad Spectrum SPF 32 - Medium; Daylogic Tinted Daily Moisturizer SPF 30; Daylogic baby SPF 60; Dd TZ Forte; De LA Cruz Diaper Rash; DeVita Natural Skincare Solar Body Moisturizer Broad Spectrum SPF30 Mineral Sunscreen; Dear Klairs Midday Blue Sunlotion; Dear Klairs Mochi BB Cushion Pact; Decorte Sheer Brilliance 10; Decorte Sheer Brilliance 20; Decorte Sheer Brilliance 30; Decorte Sheer Brilliance 40; Deep Bisque Foundation SPF 20; Deep Bisque Original; Deep Daylight Tinted Radiance Moisturizer Broad Spectrum SPF 32; Deepest Deep; Derma Dr. lab Hydromoist Cover BB; Derma Dr.lab Daily Mild Sun; Derma Gran Bc - Perineal Protectant; Derma Gran Bc Perineal Protectant; DermaCen Protectant; DermaQuest TM Skin Therapy, Breathable Coverage TM Mineral Foundation SPF-30, DermaMinerals TM; DermaSav; Dermablend Active Cover Creme Foundation SPF 15; DermacinRx Zinc Oxide Skin Healing; Dermagesic; Dermaquest Skin Therapy Daily Moisturizing SPF 15; Dermaquest Skin Therapy Solar Protection SPF 15; Dermaroller Anhydrous Sunscreen SPF 30; Dermaseptin; Dermaspf Sun Protect SPF 45; Dermatologic Relief; Dermesse Sunscreen SPF30 Medium Tint; Dermoessential Revival Balm; Dermogen; Desert Bambu Facial Sunscreen SPF 30; Desert Essence Dont Be Rash Diaper Cream; Desert Essence Mineral Sunscreen SPF 35; Desert Spirit Sunscreen; Deserving Health Baby Specialty Cream; Desitin Maximum Strength Diaper Rash; Desitin Maximum Strength Original; Desitin Rapid Relief Creamy Diaper Rash; Desitin Rapid Relief Creamy Fragrance Free; Desitin Rapid Relief Diaper Rash; Deter Outdoor Skin Protection Natural Mineral Sunscreen SPF 30; Detox Healing BB; Devita Natural Skin Care Solar Protective Moisturizer Broad Spectrum SPF 30 Mineral Sunscreen; Dg Baby Diaper Rash; Dhc Bb Foundation Natural Ocher 01; Dhc Bb Foundation Natural Ocher 02; Diamond White Brightening Shield Treatment Cream; Diamond White Matte Finish Sun Protection; Diamond White Oil-Free Brilliant Sun Protection; Diaper Guard Ont; Diaper Rash; Diaper Rash Balm; Diaper Rash Cream; Diaper Rash Ointment; Diaper Rash Ointment 15%; Diaper Rash Ointment Extra Strength; Diaper Rash Ointment Fragrance Free; Diaper Rash Ointment/onguent Pour Le Traitement De L'érythème Fessier; Diaper Rash Skin Protectant Crema Cero; Diaper Rash Skin Protectant Crema Cero With Aloe Vera; Diaper-care; DiaperRashOintment; Diaprex; DiorSkin forever Perfect Cushion Perfect Fresh Makeup Everlasting Luminous Matte Finish Pore-Refining Effect with Sunscreen Broad Spectrum SPF35 010; DiorSkin forever Perfect Cushion Perfect Fresh Makeup Everlasting Luminous Matte Finish Pore-Refining Effect with Sunscreen Broad Spectrum SPF35 011; DiorSkin forever Perfect Cushion Perfect Fresh Makeup Everlasting Luminous Matte Finish Pore-Refining Effect with Sunscreen Broad Spectrum SPF35 020; DiorSkin forever Perfect Cushion Perfect Fresh Makeup Everlasting Luminous Matte Finish Pore-Refining Effect with Sunscreen Broad Spectrum SPF35 021; DiorSkin forever Perfect Cushion Perfect Fresh Makeup Everlasting Luminous Matte Finish Pore-Refining Effect with Sunscreen Broad Spectrum SPF35 030; DiorSkin forever Perfect Cushion Perfect Fresh Makeup Everlasting Luminous Matte Finish Pore-Refining Effect with Sunscreen Broad Spectrum SPF35 040; Disney Baby Einstein SPF 45 Lotion; Disney Sun Pals SPF 45 Lotion Mermaid; Disney Sun Pals SPF 45 Lotion Nemo; Disney Sun Pals SPF 45 Lotion Pooh Bear; Divine Illumination Divine Flawless Foundation SPF 50; Docs SKINCARE NATURAL SUNSCREEN SPF30; DoctorsLab Derma Cover Tattoo Foundation No.21; DoctorsLab Derma Cover Tattoo Foundation No.23; Dolce and Gabbana Daily Moisturizer Broad Spectrum SPF 15; Dolce and Gabbana The Primer Sheer Radiance Make Up Base with Sunscreen Broad Spectrum SPF 30; Donna Karan Soothing Lip Balm SPF 15; Double Duty Face Protector SPF 15 Jafra; Double Wear All Day Glow Bb Moisture Makeup Broad Spectrum SPF 30; Double Wear Cushion Bb All Day Wear Compact Broad Spectrum SPF 50; Double Wear Nude Water Fresh Makeup Broad Spectrum SPF 30; Dove Fresh Radiance Brightening Eye Cream SPF 8; Dove Fresh Radiance Brightening Moisturizer SPF 15; Dove Pro Age Day Moisturizer; Dove Pro Age Eye Cream; Dr LeE UV ICE SHIELD; Dr Mercola Broad Spectrum SPF15; Dr Smiths Diaper; Dr Smiths Diaper Rash; Dr Weils Mega-defense Advanced Daily Uv Defender Broad Spectrum SPF 45 Suncreen; Dr Young Protect Prevent 2P Blemish Base; Dr Young Protect Prevent 2P Pearl Brightening Balm; Dr Young Protect Prevent UV Cut and Ultra Light Sun; Dr. Babor Purity Cellular Ultimate Blemish Reducing Duo; Dr. Eslee Physical Sunscreen; Dr. G A Clear Sensi Acne Sun SPF43 PA Plus Plus Plus; Dr. G Brightening Up Sun SPF 42 PA Plus Plus Plus; Dr. G Moist Ample CC Cushion SPF 50 Plus PA Plus Plus Plus Natural Beige; Dr. Iaso Power 23; Dr. Jart BB Boys Be Bold; Dr. Jart BB Get Ready; Dr. Jart Bounce Beauty Balm 01 Light-medium; Dr. Jart Bounce Beauty Balm 02 Medium-Deep; Dr. Jart DIS-A-PORE Beauty Balm; Dr. Jart Illuminating BB Brush; Dr. Jart Nourishing Beauty Balm; Dr. Jart Premium Beauty Balm; Dr. Jart RADIANCE Beauty Balm; Dr. Jart Shimmering Beauty Balm 01 Light - Medium; Dr. Jart Shimmering Beauty Balm 02 Medium - Deep; Dr. Lewinn by Kinerase Sunscreen Broad Spectrum SPF 15; Dr. Mercola Broad Spectrum; Dr. Oberon Diaper Rash Baby Cream; Dr. Selby Curative Diaper Rash and Skin Protectant; Dr. Sheffield Barrier Cream; Dr. Sheffield Diaper Rash; Dr. Sheffield Hemorrhoid; Dr. Smiths Rash and Skin; Dr. Waltons Baby Powder; Dr.Denese SPF 30 Defense Day; Dr.G Age Defense BB SPF50 Plus PA Plus Plus; Dr.G Brightening Balm SPF30 PA Plus Plus; Dr.G Brightening Up Sun; Dr.G Daily Safe BB SPF30 PA Plus Plus; Dr.G Green Mild Up Sun; Dr.G Medi UV Ultra Sun SPF 50 Plus PA Plus Plus Plus; Dr.G Perfect Pore Cover BB SPF30 PA Plus Plus; Dr.G Radiance Dual Essence BB SPF50 Plus PA Plus Plus Plus; Dr.G Super Light Brightening Balm SPF30 PA PLUS PLUS; Dr.Jart Air Mesh; Dr.Jart BB Mate Contouring 01; Dr.Jart BB Mate Contouring 02; Dr.Jart BB Mate Contouring 03; Dr.Jart Black Label Detox BB Beaty Balm; Dr.Jart Bounce Beauty Balm Moist 01 Light; Dr.Jart Bounce Beauty Balm Moist 02 Medium Deep; Dr.Jart CC Essence Balm 01 Light - Medium; Dr.Jart CC Essence Balm 02 Medium - Deep; Dr.Jart Cicapair Tiger Grass Color Correcting Treatment; Dr.Jart Dis-A-Pore Beauty Balm 02 MEDIUM-DEEP; Dr.Jart Every Sun Day Sunscreen SPF 50; Dr.Jart For Men Active BB Block; Dr.Jart Premium Beauty Balm 02; Dr.Jart Renewalist BB; Dr.Jart V7 Beauty Balm; Dr.althea Aurora Cover Cushion 21; Dr.eslee Intensive Recovery Blemish Balm; Dr.g Primer Bb Protector Spf38; Drunk Elephant Umbra Sheer Defense SPF-30; Dyna1195; Dyna1199 with Dimethicone; Dynashield; Dynashield with Dimethicone; E NATURE Plantlicious UV CC cushion 21; E NATURE Plantlicious UV CC cushion 23; E NATURE Plantlicious UV sunblock; EAU THERMALE Avene High Protection Mineral BROAD SPECTRUM SPF 50; ECO 10 Mineral Sun Pro Automatic Brush Type; ECO 10 Mineral Sun Pro Puff type; ELF Beautifully Bare Foundation Serum Broad Spectrum SPF 25 Sunscreen Fair Light; ELF Beautifully Bare Foundation Serum Broad Spectrum SPF 25 Sunscreen Light Medium; ELF Beautifully Bare Foundation Serum Broad Spectrum SPF 25 Sunscreen Medium Dark; ELF Beauty Shield SPF 50 Skin Shielding Primer; ELF Mineral Concealers SPF 15; ELF Mineral Foundation SPF 15; ELF Personal Blend Foundation SPF 15; ELF SPF 45 Sunscreen UVA/UVB Protection; EMINENCE Bright Skin Moisturizer BROAD SPECTRUM SPF 30 SUNSCREEN; EMINENCE Red Currant Protective Moisturizer; ESIKA PRO HIDRACOLOR 3 IN 1 Moisturizing, color and perfecting effect SPF 25; ESIKA PRO HIDRACOLOR 3 IN 1 Moisturizing, color and perfecting effect SPF 25 (BORGONA SEXY) - PURPLE; ESIKA PRO HIDRACOLOR 3 IN 1 Moisturizing, color and perfecting effect SPF 25 (BRONCE METALLIC) - BROWN; ESIKA PRO HIDRACOLOR 3 IN 1 Moisturizing, color and perfecting effect SPF 25 (CORAL CHIC) - PINK; ESIKA PRO HIDRACOLOR 3 IN 1 Moisturizing, color and perfecting effect SPF 25 (FRESA HOT) - PINK; ESIKA PRO HIDRACOLOR 3 IN 1 Moisturizing, color and perfecting effect SPF 25 (FUCSIA CAUTIVANTE) - PINK; ESIKA PRO HIDRACOLOR 3 IN 1 Moisturizing, color and perfecting effect SPF 25 (FUCSIA INTENSE) - PINK; ESIKA PRO HIDRACOLOR 3 IN 1 Moisturizing, color and perfecting effect SPF 25 (GRANATE SEDUCTOR) - PURPLE; ESIKA PRO HIDRACOLOR 3 IN 1 Moisturizing, color and perfecting effect SPF 25 (MARRON TOPACIO) - BROWN; ESIKA PRO HIDRACOLOR 3 IN 1 Moisturizing, color and perfecting effect SPF 25 (MORA ATREVIDA) - PURPLE; ESIKA PRO HIDRACOLOR 3 IN 1 Moisturizing, color and perfecting effect SPF 25 (MORA GLAM) - PURPLE; ESIKA PRO HIDRACOLOR 3 IN 1 Moisturizing, color and perfecting effect SPF 25 (NARANJA CITRICO) - ORANGE; ESIKA PRO HIDRACOLOR 3 IN 1 Moisturizing, color and perfecting effect SPF 25 (NARANJA ESFERA) - ORANGE; ESIKA PRO HIDRACOLOR 3 IN 1 Moisturizing, color and perfecting effect SPF 25 (NUDE MOCCHA) - ORANGE; ESIKA PRO HIDRACOLOR 3 IN 1 Moisturizing, color and perfecting effect SPF 25 (NUDE PUNCH) - ORANGE; ESIKA PRO HIDRACOLOR 3 IN 1 Moisturizing, color and perfecting effect SPF 25 (NUDE SAVANNA) - ORANGE; ESIKA PRO HIDRACOLOR 3 IN 1 Moisturizing, color and perfecting effect SPF 25 (PEACH NUDE) - BROWN; ESIKA PRO HIDRACOLOR 3 IN 1 Moisturizing, color and perfecting effect SPF 25 (PIMIENTA CALIENTE) - BROWN; ESIKA PRO HIDRACOLOR 3 IN 1 Moisturizing, color and perfecting effect SPF 25 (ROJO DESEO) - RED; ESIKA PRO HIDRACOLOR 3 IN 1 Moisturizing, color and perfecting effect SPF 25 (ROJO ESIKA) - RED; ESIKA PRO HIDRACOLOR 3 IN 1 Moisturizing, color and perfecting effect SPF 25 (ROJO SENSUAL) - RED; ESIKA PRO HIDRACOLOR 3 IN 1 Moisturizing, color and perfecting effect SPF 25 (ROJO TROPICAL) - RED; ESIKA PRO HIDRACOLOR 3 IN 1 Moisturizing, color and perfecting effect SPF 25 (ROSA ENCANTO) - PINK; ESIKA PRO HIDRACOLOR 3 IN 1 Moisturizing, color and perfecting effect SPF 25 (ROSA GEOMETRIC) - PINK; ESIKA PRO HIDRACOLOR 3 IN 1 Moisturizing, color and perfecting effect SPF 25 (ROSA NUDE) - PINK; ETUDE HOUSE Precious Mineral BB Bright Fit Natural Beige W13; ETUDE HOUSE Precious Mineral BB Bright Fit SPF 30 Honey Beige W24; EX-glow-sion SPF-20; Earth Baby Soothe N Comfort Diaper Rash Cream; Earth Baby Sun N Fun Baby Sunscreen SPF 30; Earth Best Diaper Relief; Earth Long Wear Makeup Broad Spectrum SPF 20; Earth Radiance Foundation Broad Spectrum SPF 20 - Tawny JAFRA; Earths Best Diaper Relief; Earths Best Mineral Sunscreen Broad Spectrum SPF30; Easydew Daily Water Proof Sun; Easydew EX Mineral BB SPF45 PA PLUS PLUS; Eau Thermale Avene Complexion Correcting Shield Dark Mineral Sunscreen SPF 50 Plus; Eau Thermale Avene Complexion Correcting Shield Light Mineral Sunscreen SPF 50 Plus; Eau Thermale Avene Complexion Correcting Shield Medium Mineral Sunscreen SPF 50 Plus; Eau Thermale Avene Hydrating Sunscreen Balm SPF 50 Plus; Eau Thermale Avene Mineral Light Hydrating Sunscreen SPF 50; Eau Thermale Avene Mineral Ultra-Light Hydrating Sunscreen SPF 50; Eclipse SPF 50 All Shades; Eco Lips Lip Balm SPF 30; Eco SPF 30; Eco Soul Luminous Original BB 01 Light Beige; Eco Soul Luminous Original BB 02 Natural Beige; Eco Soul Luminous Photoshop Pact 21 Light Beige; Eco Soul Luminous Photoshop Pact 23 Natural Beige; Eco Soul Power Proof Cooling BB Cushion 01 Aqua Beige; Eco Soul Power Proof Cooling BB Cushion 02 Neutral Beige; Eco Soul Spau BB Cake 01 Light Beige; Eco Soul Spau BB Cake 02 Natural Beige; Eco Soul Spau BB Cushion 01 Light Beige; Eco Soul Spau BB Cushion 02 Natural Beige; Egf Uv Shield; Eight Hour Cream Sun Defense for Face SPF 50 Sunscreen; Elemental Resestance Broad Spectrum SPF 50 Vertra; Elemental Resistance Broad Spectrum SPF 50 Vertra; Elizabeth Arden Prevage City Smart Broad Spectrum SPF 50 Hydrating Shield; Elta Block SPF 32; Elta Dermavase; Elta MD UV Aero SPF45; Elta MD UV Clear SPF46; Elta MD UV Pure SPF47; Elta MD UV SPF46 SPF46; Elta Seal; EltaMD UV Clear Tinted; EltaMD UV Daily SPF 40; EltaMD UV Daily Tinted; EltaMD UV Elements; EltaMD UV Facial SPF 30; EltaMD UV Lip Balm; EltaMD UV PhysicalSPF 41 SPF 41; EltaMD UV SPF 30; EltaMD UV Shield SPF 45; EltaMD UV Sport SPF 50; Eltamd Skincare Uv Daily SPF 40; Eltamd Skincare Uv Defense SPF 45; Eltamd Skincare Uv Facial SPF 30; Eltamd Skincare Uv Lotion SPF 30; Eltamd Skincare Uv Sport SPF 50; Embrace Anti-itch Skin Protectant With Calamine and Menthol; Emmune Flobe Effect Cushion; Endit Zinc Oxide Skin Protectant; Enesti UV-Cut Sunblock; Enhanced Facial Moisturizer; Environmental Defense; Epicuren Discovery SPF 30; Epionce Active Shield; Epionce Active Shield SPF 30; Epionce Daily Shield Tinted SPF 50; Epionce Skin Barrier Repair Kit; Epionce Ultra Shield; Equate Barrier Cream; Equate Beauty All-daymoisturizing Broad Spectrumspf 15 Sunscreen; Equate Creamy Diaper Rash Relief; Equate Maximum Strength Creamy Diaper Rash Relief; Equate Moisturizing Lotion SPF 15; Equitance Sunscreen Broad Spectrum SPF 36; Erase It Kit; Erborian - Bb Creme Au Ginseng Caramel Spf20; Erborian - Bb Creme Au Ginseng Clair SPF 20; Erborian - Bb Creme Au Ginseng Dore SPF 20; Erborian - Bb Creme Nude Spf20; Erborian - Cc Creme High Definition SPF 25; Erborian - Cc Creme High Definition Spf25 Clair; Erborian BB Creme Au Ginseng; Erborian BB Creme Au Ginseng Dore; Eryfotona Actinica Ultralight Emulsion; Esika Pro Compact High Definintion and Double Finish SPF 15 CLEAR 1 - BEIGE; Esika Pro Compact High Definintion and Double Finish SPF 15 CLEAR 2 - BEIGE; Esika Pro Compact High Definintion and Double Finish SPF 15 MEDIUM 1 - BEIGE; Esika Pro Compact High Definintion and Double Finish SPF 15 MEDIUM 2 - BEIGE; Esika Pro Compact High Definintion and Double Finish SPF 15 MEDIUM 3 - BEIGE; Esika Pro Compact High Definintion and Double Finish SPF 15 MEDIUM 4 - BEIGE; Esika Pro Compact High Definintion and Double Finish SPF 15 MEDIUM 5 - BEIGE; Esika Pro HIDRACOLOR 3 in 1 Moisturizing, Color and Perfecting Effect SPF 25; Esika Pro Instant Perfection 3 En 1 Face Refining Foundation SPF 25 Claro 1 - Beige; Esika Pro Instant Perfection 3 En 1 Face Refining Foundation SPF 25 Claro 2 - Beige; Esika Pro Instant Perfection 3 En 1 Face Refining Foundation SPF 25 Medio 1 - Beige; Esika Pro Instant Perfection 3 En 1 Face Refining Foundation SPF 25 Medio 2 - Beige; Esika Pro Instant Perfection 3 En 1 Face Refining Foundation SPF 25 Medio 3 - Beige; Esika Pro Instant Perfection 3 En 1 Face Refining Foundation SPF 25 Medio 4 - Beige; Esika Pro Instant Perfection 3 En 1 Face Refining Foundation SPF 25 Medio 5 - Beige; Esika Triple Accion Max Bb Crema Facial Perfeccionadora Con Color Fps 30 6 Beneficios En 1 Claro (beige); Esika Triple Accion Max Bb Crema Facial Perfeccionadora Con Color Fps 30 6 Beneficios En 1 Medio (brown); Esika Triple Accion Max Bb Dark Beige; Esika Triple Accion Max Bb Light Beige; Esopinio Sun Shield Plus SPF 35 Pa; Essential Defense Active Broad Spectrum SPF 50 Sunscreen; Essential Defense Everyday Clear Broad Spectrum SPF 47 Sunscreen; Essential Defense Mineral Shield Broad Spectrum SPF 32 TINTED Sunscreen; Essential Defense Mineral Shield Broad Spectrum SPF 35 Sunscreen; Essential Defense Vital Hydration Broad Spectrum SPF 36 Sunscreen Tinted; Estee Lauder Double Wear All-day Glow Bb Moisture Makeup SPF 30; Estee Lauder Double Wear Nude Water Fresh Makeup SPF 30; Estee Lauder Sunblock for Body SPF 15; Estee Lauder Sunblock for Body SPF 25; Estée Lauder Sunblock for Face SPF 15; Etival Cc Cream; Eucerin; Eucerin Daily Protection Face; Eucerin Everyday Protection Face; Even Better Glow Light Reflecting Makeup Broad Spectrum SPF 15; Even Better Makeup Broad Spectrum SPF 15; Even Better Makeup SPF 15 Evens and Corrects; Even Up Sunscreen SPF 50; Evenly Radiant Brightening Day Creme SPF 15; EverGlam BB Natural Beige; Every Day COCONUT Daily Face Broad Spectrum SPF 15; Everyday Facial Moisturizer And Sunscreen SPF 20; Everyday Natural Mineral Sunscreen Broad Spectrum SPF 30; Everyday Sunscreen; Everything Tinted Moisturizer Broad Spectrum SPF 20; Everything Tinted Moisturizer Oil Free Broad Spectrum SPF 20; Evote White Carbon Complextm Day Anti Aging Protect and Illuminate Broad Spectrum SPF 25; Evote White Carbon Complextm Day Eye Anti-aging Protect,firm,brighten Broad Spectrum SPF 15 Serum; Evote White Carbon Complextm Day Eye Serum Anti-aging Protect,firm,brighten Broad Spectrum SPF 15; Extra Light Tinted Radiance Moisturizer Broad Spectrum SPF 32; Extra Rich Day Defense SPF 30; Extra Strength Diaper Rash Ointment; Extreme Protect SPF 30; Extreme Protect SPF-30; Exuviance CoverBlend Concealing Treatment Makeup SPF 30 Bisque; Exuviance CoverBlend Concealing Treatment Makeup SPF 30 Caramel; Exuviance CoverBlend Concealing Treatment Makeup SPF 30 Classic Beige; Exuviance CoverBlend Concealing Treatment Makeup SPF 30 Desert Sand; Exuviance CoverBlend Concealing Treatment Makeup SPF 30 Golden Beige; Exuviance CoverBlend Concealing Treatment Makeup SPF 30 Honey Sand; Exuviance CoverBlend Concealing Treatment Makeup SPF 30 Mocha; Exuviance CoverBlend Concealing Treatment Makeup SPF 30 Neutral Sand; Exuviance CoverBlend Concealing Treatment Makeup SPF 30 Terracotta Sand; Exuviance CoverBlend Concealing Treatment Makeup SPF 30 Toasted Almond; Exuviance CoverBlend Concealing Treatment Makeup SPF 30 True Beige; Exuviance CoverBlend Concealing Treatment Makeup SPF 30 Warm Beige; Exuviance Sheer Daily Protector SPF 50; FACE IT BB (Natural Beige) 32800379; FACE IT Radiance Two Way Cake NB21; FACE IT Radiance Two Way Cake NB23; FACE it 32800378; FRENCH SECRET SPF - 15 Day Broad-Spectrum; Face Cream 50; Face Factor SPF 50; Face It 32800285; Face It 4d Perpect Two-way Cake Nb21; Face It 4d Perpect Two-way Cake Nb23; Face It Aqua Uv Color Control 32800772; Face It Aqua Uv Color Control 32800773; Face It Aqua Uv Color Control 32800789; Face It Aqua Uv Color Control 32800790; Face It Aura Color Control 32800657; Face It Aura Color Control 32800658; Face It Aura Color Control 32800660; Face It Aura Color Control 32800675; Face It Aura Color Control 32800676; Face It Aura Color Control Cream SPF 30/pa++; Face It Aura Color Control Spf30 (refill), 01 Radiant Beige 32800659; Face It Bb SPF 50+/pa+++; Face It Hd Perfect Bb 32800472; Face It Hd Perfect Bb 32800473; Face It Hd Perfect Bb Cream SPF 35/pa++; Face It Hd Perfect Bb Spf30 Pa 01; Face It Hd Perfect Bb Spf30 Pa 02; Face It Phytocollagen EX Two-way Cake SPF 30/pa+++; Face It Power Perfection 32800311; Face It Power Perfection 32800843; Face It Power Perfection Bb 00 32800842; Face It Power Perfection Bb Cream SPF 37/pa++; Face It Radiance Powder Pact SPF 50+/pa+++; Face It Radiance Powder Pact Spf25 Moisture Veil Nb17; Face It Radiance Powder Pact Spf25 Moisture Veil Nb21; Face It Radiance Powder Pact Spf25 Moisture Veil Nb23; Face It Radiance Two-way Cake SPF 25 Pa++; Face It Shimmering Bb Cream SPF 20/pa+; Face It Smart Capsule Color Control Cream SPF 40/pa++ Perfect Skin Tone; Face It Smart Color Control 32800661; Face It Smart Color Control 32800677; Face Mix Make up Base Green; Face Mix Skin Foundation; Face Protector Broad Spectrum SPF 40 Jafra; Face Stick Premium Endurance Sunscreen 30; Face Stockholm BB Natural Beauty Balm SPF 30 Shade NR 1; Face Stockholm BB Natural Beauty Balm SPF 30 Shade NR 2; Face Tone Controller 01 Spf30; Face Tone Controller Spf30; Face Values - AM Facial Moisturizing Broad Spectrum SPF30 Sunscreen; Face Zone Sun Block SPF 30; FaceCoTZ (Sunscreen); Faceblock Spf30 Super Sensitive; Facet It Pure Color Control 32800851; Facial Natural Mineral Sunscreen Broad Spectrum SPF 30; Facial Sun Stick SPF 30; Fair Foundation SPF 15; Fairly Medium Foundation SPF 15; Family Care Thera Flex Pain; Family Sunscreen SPF 36; Featherlite Maximum Foundation SPF 15; Firming Day SPF 30; Firming Moisture; First Aid Research Chafe Away Medicated Healing; First Aid Research Zinc Oxyde Plus; Flanders Buttocks; Flawless Finish Foundation SPF 25 Sunscreen; Flawless Skin Makeup Broad Spectrum SPF 15; Flawless Skin Protecting Foundation SPF 25; Flebeaute Collagenic Make Up Base Spf20 Pa 01green; Flebeaute Collagenic Two Way Cake Spf17 Pa Nb21; Flebeaute Collagenic Two Way Cake Spf17 Pa Nb23; Flebeaute Collagenic Two Way Cake Spf17 Pa Nb25; Foltabs Prenatal; Foot Detox; Formula 21 Diaper Rash; Foundation Caramel; Foundation Nude; Foundation Primer SPF 15; Foundation Soft Cocoa; Foundation Sweet Almond; Freds Calamine; Fresh Scent Protective Powder; Fresh Skin Effortless Beauty Balm Broad Spectrum SPF 35; Frida Kahlo Edition Tension Pact Intense Moisture SPF37 No21; Frida Kahlo Edition Tension Pact Intense Moisture SPF37 No23; Frida Kahlo Edition Tension Pact Intense Moisture SPF37 No27; Frida Kahlo Edition Tension Pact Intense Moisture SPF37 No29; Frida Kahlo Edition Tension Pact Perfect Cover SPF37 No 21; Frida Kahlo Edition Tension Pact Perfect Cover SPF37 No 23; Frida Kahlo Edition Tension Pact Perfect Cover SPF37 No 27; Frida Kahlo Edition Tension Pact Perfect Cover SPF37 No 29; Frida Kahlo Edition Tension Pact Perfect Cover SPF37 No 31; Frimousse Ecran Solaire Fps 15; Full Stay 24hr Spf50; Full Stay 24hr V203 Natural Beige; Full Stay Cc 24hr; Full Stay V201 Apricot Beige (refill); Future Solution Lx Universal Defense; G.M. Collin Mineral Sun Veil; G9 Moisture CC SPF30 PA PLUS PLUS; G9 Whitening Skin; GIN-III Alpha and Omega GIN Sun; GM Collin MINERAL BB; GM Collin Mineral Sun; GM Collin Mineral Sun Veil Tinted; GM Collin SPF 60 Mineral Sunscreen; GMC Medical; GMC Medical ANTI-AGING TREATMENT; GMC Medical ANTIOXIDANT AND ANTI-AGING TREATMENT; GMC Medical POST PROCEDURE TREATMENT; GMC Medical Sun Protection; GNP Calamine Topical Suspension; GNP Caldyphen; GODDESS GARDEN ORGANICS Grapefruit Bergamot DAILY BROAD SPECTRUM SPF 15; GODDESS GARDEN ORGANICS Lavender Mint DAILY BROAD SPECTRUM SPF 15; GODDESS GARDEN ORGANICS Sunny Baby NATURAL SUNSCREEN BROAD SPECTRUM SPF 30 WATER RESISTANT; GODDESS GARDEN ORGANICS Sunny Body NATURAL SUNSCREEN BROAD SPECTRUM SPF 30 WATER RESISTANT; GODDESS GARDEN ORGANICS Sunny Face NATURAL SUNSCREEN BROAD SPECTRUM SPF 30 WATER RESISTANT; GODDESS GARDEN ORGANICS Sunny Kids NATURAL SUNSCREEN BROAD SPECTRUM SPF 30 WATER RESISTANT; GODDESS GARDEN ORGANICS Tangerine Lavender DAILY BROAD SPECTRUM SPF 15; GUINOT Ultra UV Sunscreen High Protection Sun For The Face SPF 30; GenRx Cala Zinc Skin Healing; Gentle Rejuvenation Ultra Light Repair SPF 30 Sunscreen; Gerber Diaper Rash Ointment; GeriGard; Gesticare DHA; Ginseng Royal Silk Pow Der 01 Pure Beige; Glamtox Eye; Glytone Sunscreen SPF 40; Gmc Medical Sun Protection Broad Spectrum SPF 60; Goddess Garden Organics Baby Natural Sunscreen Broad Spectrum; Goddess Garden Organics Everyday Natural Sunscreen; Goddess Garden Organics Everyday Natural Sunscreen Broad Spectrum; Goddess Garden Organics Facial Natural Sunscreen Broad Spectrum; Goddess Garden Organics Kids Natural Sunscreen; Goddess Garden Organics Kids Natural Sunscreen Broad Spectrum; Goddess Garden Organics Kids Natural Sunscreen Broad Spectrum SPF 30 Continuous; Goddess Garden Organics Kids Natural Sunscreen SPF 30; Goddess Garden Organics Kids Sport Natural Sunscreen Broad Spectrum SPF 30; Goddess Garden Organics Sport Natural Sunscreen Broad Spectrum SPF 30; Goddess Garden Organics Sport Natural Sunscreen Broad Spectrum SPF 30 Continuous; Gold Bond Baby Cornstarch Plus; Gold Bond Medicated Body Powder; Gold Caviar Bb; Gold Caviar Cover Cushion; Gold Collagen Ampoule Cover Cake SPF 50; Gold Collagen Ampoule Cover Cake Spf50 N203; Gold Collagen Ampoule Foundation Spf30; Gold Collagen Ampoule Two-way Compact Foundation Spf30; Gold Collagen Foundation Spf30; Gold Collagen N203 Natural Beige Spf30; Gold Collagen SPF 30 Pa; Golden Dark Foundation SPF 15; Golden Deep Foundation SPF 15; Golden Fair Foundation SPF 15; Golden Tan Original; Goldkiwi Sun SPF 36 Pa Plus Plus; Goldkiwi Sun SPF 50 Plus Pa Plus Plus Plus; Goldkiwi Sun Spf50 Plus Pa Plus Plus; Golfers Skin Broad Spectrum SPF 30 Plus Sunscreen; GolfersSkin Face Sunscreen; GolfersSkin Sunscreen Zinc; Good Afternoon Berry Berry Tea Bb Spf35 Pa Plus Plus No.1; Good Afternoon Berry Berry Tea Bb Spf35 Pa Plus Plus No.2; Good Neighbor Pharmacy Diaper Rash; Good Neighbor Pharmacy Diaper Rash Creamy; Good Neighbor Pharmacy Zinc Oxide; Goodsense Diaper Rash; Goong Secret Mild Sun Spf25 Pa Plus Plus; Goongsecret Baby Sun Spf35 Pa Plus Plus Plus; Goongsecret Mild Sun SPF25 PA PLUS PLUS; Goth Block SPF-50; Gowoonsesang Brightening Balm SPF30; Gowoonsesang Expert Actifirm Tm Recovery Super Blemish Base Spf30 Pa Plus Plus; Gowoonsesang Hydra Intensive Blemish Balm; Gowoonsesang Hydra Intensive Blemish Balm SPF30; Gowoonsesang Medi UV Block Suncream SPF50; Gowoonsesang Multi Protection SPF30; Gowoonsesang Perfect Pore Cover Bb SPF 30 Pa Plus Plus; Grahams Natural Diaper Rash; GranuLotion; Green Stick; Green Sunblock; Gretchen Bleiler's Sweet Vanilla Lip Balmer SPF 15; HAND PERFECTION ANTI-AGING SKINCARE nourishing day SPF 15; HAUTE PROTECTION High Protection Tinted Compact BROAD SPECTRUM SPF 50 BEIGE; HAUTE PROTECTION High Protection Tinted Compact BROAD SPECTRUM SPF 50 HONEY; HEB Calaclear; HEB Calagesic; Hansai Beestox Sun Cream SPF 50; Hansai Beestox Trial Kit Set Beestox Sun Cream; Hanskin Bio Origin Royal Ampoule Bb EX; Hanskin Super Light Touch Bb; Hanskin nontouring gradation pact L21 fair Serum cover balm; Hanskin nontouring gradation pact M22 nude Serum cover balm; Harris Teeter Calamine; Harris Teetter Calagesic; Haute Protection High Protection Tinted Compact Broad Spectrum SPF 50; Hd Waterful Bb; Health Care Calamine; Health Mart Calamine; Health Smart Medicated Body; Healthy Skin Protection; Healthy Wear Powder Foundation SPF 50; Healthy Wear Pressed Bronzer SPF 50; Healthy Wear Tinted Moisturizer SPF 50; HemeNatal OB; Hemo-pic; Hemorrodil Unguento; Henry Schein Flexible Unna Boot; Henry Schein Flexible Unna Boot with Calamine; Herisan Ont 150mg; High Altitude Adventure Sunscreen; High Altitude Apres; High Impact Lip Colour SPF 15; Hipoglos; Honest Mineral Sunscreen Broad Spectrum SPF 50; Honest Sunscreen Broad Spectrum SPF 30; Honest Sunscreen SPF 30 Broad Spectrum SPF 30; Honey Bisque Foundation SPF 20; Hope In A Jar A To Z Cream Broad Spectrum SPF 20 Sunscreen; Hope Oil Free Moisturizer SPF 30; Humco Calagesic; Humco Calamine; Hydra Intensive Blemish Balm SPF30 PA; Hydra Vãgãtal CRãme Hydratante Fps 25; HydraTint Pro Mineral Broad Spectrum Sunscreen SPF 36; Hydrator Plus SPF 30; Hydro and Pore BB; HydroPeptide Solar Defense Broad Spectrum SPF30; INATAL Ultra; IOPE AIR CUSHION Cover 13 Ivory; IOPE AIR CUSHION Cover 21 Vanilla; IOPE AIR CUSHION Cover 23 Beige; IOPE AIR CUSHION Natural 13 Ivory; IOPE AIR CUSHION Natural 21 Vanilla; IOPE AIR CUSHION Natural 23 Beige; IOPE Air Cushion Blusher no 1; IOPE Air Cushion Blusher no 2; IOPE Air Cushion Sunblock EX; IOPE CC no. 1; IOPE CC no. 2; IOPE Perfect Skin Twin Pact no 21; IOPE Perfect Skin Twin Pact no 23; IOPE S.S. CONDITIONING COLOR BASE No.40 SPF22 PA PLUS; IOPE S.S. CONDITIONING COLOR BASE No.60 SPF22 PA PLUS; IPKN ARTISTS TOUCH BB 02 Medium; IPKN MOIST AND FIRM BB 02 Light; IPKN Moist and Firm BB 01 Light; IPKN Moist and Firm BB 02 MEDIUM; IPKN Moist and Firm BB 02 Medium; IPKN Moist and Firm BB 03 Light Medium; IPKN Moist and Firm BB 04 Medium; IPKN Pore Apple Sun Block; IQ Derma Essentials Life Without Wrinkles SPF 25; IQ Derma regiMEN Hydrating UV Shield SPF 25; Iaso Control Make Up Base 60; Iaso Cover Veil Pact 25; Iaso Smart Powder Pact 23; Ice Sun Bc Air Puff; Ics Perfect Finish Bb EX SPF 17 Pa; Ics Platinum Multi Finish Bb SPF 47 Pa; Ideal Shade Mousse Foundation Stick Stick Fond De Teint Mousse SPF/fps 10; Ideal Tone Up Glow Bb; Ihle's Paste 25%; Image Md Reconstructive Moisturizer SPF 50; Impact Fix Prism Two Way Cake Broad Spectrum SPF 24; Impact Fix Prism Two Way Cake SPF 24, No. 23; Impact Fix Prism Two Way Cake SPF 24, No. 33; Inatal Advance; Indefense30; Industrial Strength Sunscreen; Infant Diaper Cream Anne Geddes; Ingenue; InstaNatural Vitamin C Moisturizer SPF30; InstaReady Full Coverage Concealer SPF 30; Instant Radiance Sun Defense Sunscreen Broad Spectrum SPF 40 (Light - Medium) with sheer color correction technology; Instant Radiance Sun Defense Sunscreen Broad Spectrum SPF 40 (Medium-Deep) with sheer color correction technology; Intensive Cover Blemish Balm; Intensive Line Filler Comble-ridules Intensif SPF/fps 15; Intensive Skin Serum Foundation Broad Spectrum SPF 40; Intral Sensitive Skin Environmental Lightweight Shield Broad Spectrum Spf50; Invincible Setting powder SPF 45; Ion de Cushion Cover Beige ICCB; Ion de Cushion Cover Light Beige ICCLB; Ion de Cushion Natural Beige ICNB; Ion de Cushion Natural Light Beige ICNLB; Iope Air Cushion Flawless 13c; Iope Air Cushion Flawless 21n; Iope Air Cushion Flawless 21w; Iope Air Cushion Flawless 23n; Iope Air Cushion Flawless 23w; Iope Air Cushion Matte Longwear C13; Iope Air Cushion Matte Longwear N21; Iope Air Cushion Matte Longwear N23; Iope Air Cushion Matte Longwear W21; Iope Air Cushion Matte Longwear W23; Iope Air Cushion Perfection C13; Iope Air Cushion Perfection N21; Iope Air Cushion Perfection N23; Iope Air Cushion Perfection W21; Iope Air Cushion Perfection W23; Iope Air Cushion Sheer 13c; Iope Air Cushion Sheer 21n; Iope Air Cushion Sheer 21w; Iope Air Cushion Sheer 23n; Iope Air Cushion Sheer 23w; Iope Air Cushion Xp; Iope Air Cushion Xp Cover Beige Broad Spectrum Spf50plus; Iope Air Cushion Xp Cover Light Vanilla; Iope Air Cushion Xp Cover Vanilla Broad Spectrum Spf50plus; Iope Air Cushion Xp Intense Cover Beige; Iope Air Cushion Xp Intense Cover Vanilla; Iope Air Cushion Xp Matte Beige; Iope Air Cushion Xp Matte Light Vanilla; Iope Air Cushion Xp Matte Vanilla; Iope Air Cushion Xp Natural 31; Iope Mild Clinic Sun Protector; Iope Perfect Skin Cover Cake 21 Light Beige; Iope Perfect Skin Cover Cake 23 Natural Beige; Iope Retigen Glow Cover Cake No.21; Iope Retigen Glow Cover Cake No.23; Iope Retigen Luminous Base; Iope Retigen Moisture Base Natural Green; Iope Retigen Moisture Base Natural Yellow; Iope Retigen Moisture Foundation No.17 Spf22 Pa Plus; Iope Retigen Moisture Foundation No.21 Spf22 Pa Plus; Iope Retigen Moisture Foundation No.23 Spf22 Pa Plus; Iope Retigen Moisture Twin Cake No.17; Iope Retigen Moisture Twin Cake No.21; Iope Retigen Moisture Twin Cake No.23; Iope Retigen Smoothing Pact No.1 Spf25 Pa Plus Plus; Iope Retigen Smoothing Pact No.2 Spf25 Pa Plus Plus; Iope Ss Conditioning Foundation No.13 Spf22 Pa Plus; Iope Ss Conditioning Foundation No.21 Spf22 Pa Plus; Iope Ss Conditioning Foundation No.23 Spf22 Pa Plus; Iope Ss Conditioning Foundation No.31 Spf22 Pa Plus; Iope Ss Conditioning Twincake No.13 Spf25 Pa Plus Plus; Iope Ss Conditioning Twincake No.21 Spf25 Pa Plus Plus; Iope Ss Conditioning Twincake No.23 Spf25 Pa Plus Plus; Iope Ss Conditioning Twincake No.31 Spf25 Pa Plus Plus; Iope Super Vital Extra Moist B.b; Iope Super Vital Extra Moist Base; Iope Super Vital Extra Moist Twin Pact No. 21 Spf25 Pa Plus Plus; Iope Super Vital Extra Moist Twin Pact No. 23 Spf25 Pa Plus Plus; Ipkn Artists Touch Bb 01 Light; Ipkn Artists Touch Bb 02 Medium; Ipkn Hydro and Pore Bb 01 Light; Ipkn Hydro and Pore Bb 02 Medium; Ipkn Moist and Firm Bb 01 Fair; Ipkn Moist and Firm Bb 05 Medium Tan; Iron Polysaccharides Folic Acid DHA; Isa Knox 365 Sun; Isa Knox Smart Bb Sun; Isa SunGuard SPF 30; Isaknox Suncare 365 Advanced Sun; Island Remedy All-day Revitalizing Moisturizer with SPF 30; It Radiant CC Color Base Lavender; It Radiant CC Color Base Mint; It Radiant CC Color Base Rose; It Radiant CC Cover Light Beige; It Radiant CC Cover Natural Beige; It Radiant Glow Bb Classic Beige; It Radiant Glow Bb True Beige; Ivarest; JUNGSAEMMOOL Essential Star cealer Foundation Fair Light; JUNGSAEMMOOL Essential Star cealer Foundation Light; JUNGSAEMMOOL Essential Star cealer Foundation Medium; JUNGSAEMMOOL Essential Star cealer Foundation Medium Deep; Jacket SPF 50; Jafra Brightening Brightening SPF 15; Jafra Long Wear Makeup Broad Spectrum SPF 20; Jafra Long Wear Makeup Testers Broad Spectrum SPF 20; Jasmine 3d Waterful 3d C.c; Jasmine 3d Waterful Cc; Jasmine Water Bb; Jasmine Water Cover Cushion; Jason Pure Natural Sun Mineral Natural Sunscreen Broad Spectrum SPF30; Jazzy Jellies - Lip Twist; Jerrys Baby Non-nano Sun Cushion; Johnson's Baby Powder Medicated; Johnson's Diaper Rash Cream; Johnson's Diaper Rash Ointment 15%; Johnson's Medicated Baby Pwd - 10%; Johnsons Baby Bathtime Gift Set; Johnsons Baby First Touch Gift Set; Johnsons Baby Pure Cornstarch Medicated; Johnsons Bath Discovery baby Gift Set; Johnsons No More Rash Diaper Rash 3 in 1 Formula; Josie Maran Argan Daily Moisturizer SPF47; Josie Maran Argan Daily Moisturizer SPF47 Protect and Perfect; Journee; Journee Bio-restorative Day Cream Broad-spectrum Sunscreen SPF 30; Journee Riche Bio-restorative Day Balm Broad-spectrum Sunscreen SPF 30; Jungle Screen SPF 30; Jurlique Purely Sun-Defying Moisturizer with SPF 15 Sunscreen; KINeSYS EarthKind SPF 30 Sunscreen; KISS MY FACE MINERAL SUNSCREEN obsessively natural KIDS defense broad spectrum spf 30; KISS MY FACE MINERAL SUNSCREEN sun broad spectrum spf 30; KISS MY FACE SUNSCREEN COOL SPORT broad spectrum spf 30; KISS MY FACE SUNSCREEN TATTOO SHADE broad spectrum spf 30; KISS MY FACE SUNSCREEN face factor broad spectrum spf 30; KISS MY FACE organics KIDS MINERAL SUNSCREEN broad spectrum spf 30; KISS MY FACE organics face and body MINERAL SUNSCREEN broad spectrum spf 30; KLAVUU BLUEPEARLSATION High Coverage Marine Collagen Aqua Cushion 21; KLAVUU BLUEPEARLSATION High Coverage Marine Collagen Aqua Cushion 23; Keep The Peace Protect and Correct; Keep the Peace Broad Spectrum SPF 20 Sunscreen Protective Color Corrector; Kendall Soothing; Kicho Cc; Kicho Correct Control; Kid Safe Screen; Kid's Sunscreen SPF 46; KidCreme Mineral Broad Spectrum SPF 40 Sunscreen UVA-UVB Suncreen; KidStick Mineral Broad Spectrum SPF 40 Sunscreen UVA-UVB Sunscreen; Kids Easy Block Spray SPF 30+; Kids Natural Mineral Sunscreen Broad Spectrum SPF 30; Kids Sport Natural Mineral Sunscreen Broad Spectrum SPF 30; Kids and Baby Organic Sunscreen; Kidsport; Kinerase BB Cream with Kinetin; Kiss My Face - Face Factor SPF 30; Kiss My Face - Oat Protein Complex SPF 18; Kiss My Face - Oat Protein Complex SPF 30; Klavuu City Defense Tone Change Sun Cushion; Koh Gen Do Aqua Foundation BE-1; Koh Gen Do Aqua Foundation OC-1; Koh Gen Do Aqua Foundation OC-2; Koh Gen Do Aqua Foundation OC-3; Koh Gen Do Aqua Foundation PK-0; Koh Gen Do Aqua Foundation PK-1; Koh Gen Do Aqua Foundation PK-2; Koh Gen Do Aqua Foundation PK-3; Koh Gen Do Aqua Foundation WT-00; Koh Gen Do Maifanshi Makeup Color Base Green; Koh Gen Do Maifanshi Makeup Color Base Lavender Pink; Koh Gen Do Maifanshi Makeup Color Base Pearl White; Koh Gen Do Maifanshi Makeup Color Base Yellow; Korres Wild Rose Mineral Foundation SPF 30 - Fair; Korres Wild Rose Mineral Foundation SPF 30 - Fairly Light; Korres Wild Rose Mineral Foundation SPF 30 - Medium Beige; Korres Wild Rose Mineral Foundation SPF 30 - Medium Tan; Kypris Pot of Shade Heliotropic Broad Spectrum SPF 30 Sunscreen And Primer; LA Mer The SPF 30 Uv Protecting Fluid; LANEIGE BB CUSHION HYDRA RADIANCE No.11 Porcelain; LANEIGE BB CUSHION HYDRA RADIANCE No.21 Beige; LANEIGE BB CUSHION HYDRA RADIANCE No.23 Sand; LANEIGE BB CUSHION HYDRA RADIANCE No.33 Cinnamon; LANEIGE BB CUSHION HYDRA RADIANCE No.35 Coffee; LANEIGE BB CUSHION HYDRA RADIANCE No.37 Cacao; LANEIGE BB CUSHION PORE BLUR No.11 Porcelain; LANEIGE BB CUSHION PORE BLUR No.21 Beige; LANEIGE BB CUSHION PORE BLUR No.23 Sand; LANEIGE BB CUSHION PORE BLUR No.33 Cinnamon; LANEIGE BB CUSHION PORE BLUR No.35 Coffee; LANEIGE BB CUSHION PORE BLUR No.37 Cacao; LANEIGE BB Cushion Light; LANEIGE BB Cushion Medium; LANEIGE BB Cushion no.21; LANEIGE BB Cushion no.23; LANEIGE CUSHION CONCEALER No.11 Rose Porcelain; LANEIGE CUSHION CONCEALER No.13 Cool Ivory; LANEIGE CUSHION CONCEALER No.21 Cool Beige; LANEIGE CUSHION CONCEALER No.23 Sand; LANEIGE Forever Definite Compact Foundation No.1; LANEIGE Forever Definite Compact Foundation No.2; LANEIGE Forever Definite Compact Foundation No.3; LANEIGE Forever Definite Compact Foundation No.4; LANEIGE Snow BB No.1 Brightening BB; LANEIGE Snow BB No.2 Natural BB; LANEIGE SunScreen Triple; LAPCOS Lasting Waterproof Sun; LBEL CLARITE Clarifying Effect Foundation SPF 30; LBEL CLARITE Clarifying Effect Foundation SPF 30 CLAIRE 1- BEIGE; LBEL CLARITE Clarifying Effect Foundation SPF 30 CLAIRE 2- BEIGE; LBEL CLARITE Clarifying Effect Foundation SPF 30 CLAIRE 3- BEIGE; LBEL CLARITE Clarifying Effect Foundation SPF 30 CLAIRE 4- BEIGE; LBEL CLARITE Clarifying Effect Foundation SPF 30 MEDIUM 5- BEIGE; LBEL CLARITE Clarifying Effect Foundation SPF 30 MEDIUM 6- BEIGE; LBEL CLARITE Clarifying Effect Foundation SPF 30 MEDIUM 7- BEIGE; LBEL CLARITE Clarifying Effect Foundation SPF 30 OBSCURE 8- BROWN; LBEL CLARITE Clarifying Effect Foundation SPF 30 OBSCURE 9- BROWN; LBEL DEFENSE 365 Daily Protective Facial SPF 50; LBEL DEFENSE 365 oil-free daily protective facial SPF 50; LBEL Defense Total Compact Suncreen SPF 50 For Face - Matte Finish; LBEL Defense Total compact sunscreen SPF 50 for face - matte finish CLAIRE- BEIGE; LBEL Defense Total compact sunscreen SPF 50 for face - matte finish MEDIUM- BROWN; LBEL EFFET PARFAIT MINERAL natural skin effect mousse foundation SPF 16 CLAIRE 1 - BEIGE; LBEL EFFET PARFAIT MINERAL natural skin effect mousse foundation SPF 16 CLAIRE 1- BEIGE; LBEL EFFET PARFAIT MINERAL natural skin effect mousse foundation SPF 16 CLAIRE 2 - BEIGE; LBEL EFFET PARFAIT MINERAL natural skin effect mousse foundation SPF 16 CLAIRE 2- BEIGE; LBEL EFFET PARFAIT MINERAL natural skin effect mousse foundation SPF 16 CLAIRE 3 - BEIGE; LBEL EFFET PARFAIT MINERAL natural skin effect mousse foundation SPF 16 CLAIRE 3- BEIGE; LBEL EFFET PARFAIT MINERAL natural skin effect mousse foundation SPF 16 CLAIRE 4 - BEIGE; LBEL EFFET PARFAIT MINERAL natural skin effect mousse foundation SPF 16 CLAIRE 4- BEIGE; LBEL EFFET PARFAIT MINERAL natural skin effect mousse foundation SPF 16 MEDIUM 5 - BEIGE; LBEL EFFET PARFAIT MINERAL natural skin effect mousse foundation SPF 16 MEDIUM 5- BEIGE; LBEL EFFET PARFAIT MINERAL natural skin effect mousse foundation SPF 16 MEDIUM 6 - BEIGE; LBEL EFFET PARFAIT MINERAL natural skin effect mousse foundation SPF 16 MEDIUM 6- BEIGE; LBEL EFFET PARFAIT MINERAL natural skin effect mousse foundation SPF 16 MEDIUM 7 - BEIGE; LBEL EFFET PARFAIT MINERAL natural skin effect mousse foundation SPF 16 MEDIUM 7- BEIGE; LBEL EFFET PARFAIT MINERAL natural skin effect mousse foundation SPF 16 OBSCURE 8 - BEIGE; LBEL EFFET PARFAIT MINERAL natural skin effect mousse foundation SPF 16 OBSCURE 8- BEIGE; LBEL EFFET PARFAIT Polvos Compactos de Larga Duracion para rostro FPS 15 /Long Lasting Compact SPF 15 (CLAIRE 1) - BEIGE; LBEL EFFET PARFAIT Polvos Compactos de Larga Duracion para rostro FPS 15 /Long Lasting Compact SPF 15 (CLAIRE 2) - BEIGE; LBEL EFFET PARFAIT Polvos Compactos de Larga Duracion para rostro FPS 15 /Long Lasting Compact SPF 15 (CLAIRE 3) - BEIGE; LBEL EFFET PARFAIT Polvos Compactos de Larga Duracion para rostro FPS 15 /Long Lasting Compact SPF 15 (CLAIRE 4) - BEIGE; LBEL EFFET PARFAIT Polvos Compactos de Larga Duracion para rostro FPS 15 /Long Lasting Compact SPF 15 (MEDIUM 5) - BROWN; LBEL EFFET PARFAIT Polvos Compactos de Larga Duracion para rostro FPS 15 /Long Lasting Compact SPF 15 (MEDIUM 6) - BROWN; LBEL EFFET PARFAIT Polvos Compactos de Larga Duracion para rostro FPS 15 /Long Lasting Compact SPF 15 (MEDIUM 7) - BROWN; LBEL EFFET PARFAIT Polvos Compactos de Larga Duracion para rostro FPS 15 /Long Lasting Compact SPF 15 (OBSCURE 8) - BROWN; LBEL EFFET PARFAIT Polvos Compactos de Larga Duracion para rostro FPS 15 /Long Lasting Compact SPF 15 (OBSCURE 9) - BROWN; LBEL Effet Parfait Mineral Natural Skin Effect Mouse Foundation; LBEL MOUSSE MATIFFIANT Matte Finish Mousse Foundation SPF 16 Base Textura Mousse Acabado Mate FPS 16 CLAIRE 1 - BEIGE; LBEL MOUSSE MATIFFIANT Matte Finish Mousse Foundation SPF 16 Base Textura Mousse Acabado Mate FPS 16 CLAIRE 1- BEIGE; LBEL MOUSSE MATIFFIANT Matte Finish Mousse Foundation SPF 16 Base Textura Mousse Acabado Mate FPS 16 CLAIRE 2 - BEIGE; LBEL MOUSSE MATIFFIANT Matte Finish Mousse Foundation SPF 16 Base Textura Mousse Acabado Mate FPS 16 CLAIRE 2- BEIGE; LBEL MOUSSE MATIFFIANT Matte Finish Mousse Foundation SPF 16 Base Textura Mousse Acabado Mate FPS 16 CLAIRE 3 - BEIGE; LBEL MOUSSE MATIFFIANT Matte Finish Mousse Foundation SPF 16 Base Textura Mousse Acabado Mate FPS 16 CLAIRE 3- BEIGE; LBEL MOUSSE MATIFFIANT Matte Finish Mousse Foundation SPF 16 Base Textura Mousse Acabado Mate FPS 16 CLAIRE 4 - BEIGE; LBEL MOUSSE MATIFFIANT Matte Finish Mousse Foundation SPF 16 Base Textura Mousse Acabado Mate FPS 16 CLAIRE 4- BEIGE; LBEL MOUSSE MATIFFIANT Matte Finish Mousse Foundation SPF 16 Base Textura Mousse Acabado Mate FPS 16 MEDIUM 5 - BEIGE; LBEL MOUSSE MATIFFIANT Matte Finish Mousse Foundation SPF 16 Base Textura Mousse Acabado Mate FPS 16 MEDIUM 5- BEIGE; LBEL MOUSSE MATIFFIANT Matte Finish Mousse Foundation SPF 16 Base Textura Mousse Acabado Mate FPS 16 MEDIUM 6 - BEIGE; LBEL MOUSSE MATIFFIANT Matte Finish Mousse Foundation SPF 16 Base Textura Mousse Acabado Mate FPS 16 MEDIUM 6- BEIGE; LBEL MOUSSE MATIFFIANT Matte Finish Mousse Foundation SPF 16 Base Textura Mousse Acabado Mate FPS 16 MEDIUM 7 - BEIGE; LBEL MOUSSE MATIFFIANT Matte Finish Mousse Foundation SPF 16 Base Textura Mousse Acabado Mate FPS 16 MEDIUM 7- BEIGE; LBEL MOUSSE MATIFFIANT Matte Finish Mousse Foundation SPF 16 Base Textura Mousse Acabado Mate FPS 16 OBSCURE 8 - BROWN; LBEL MOUSSE MATIFFIANT Matte Finish Mousse Foundation SPF 16 Base Textura Mousse Acabado Mate FPS 16 OBSCURE 8- BROWN; LBEL MOUSSE MATIFFIANT Matte Finish Mousse Foundation SPF 16 Base Textura Mousse Acabado Mate FPS 16 OBSCURE 9 - BROWN; LBEL MOUSSE MATIFFIANT Matte Finish Mousse Foundation SPF 16 Base Textura Mousse Acabado Mate FPS 16 OBSCURE 9- BROWN; LBel Effet Parfit; LBri Pure N Natural Diaper; LEADER Caldyphen; La Defense Broad Spectrum SPF 30 Mineral Sunscreen; La Roche Posay Laboratoire Dermatologique Anthelios 50 Mineral Ultra Light Sunscreen; La Roche Posay Laboratoire Dermatologique Anthelios 50 Mineral Ultra Light Sunscreen Face Broad Spectrum SPF 50; LaSpa Mineral Zinc Oxide Sunscreen, 80ml; Lab Series Skincare for Men Bb Tinted Moisturizer Broad Spectrum SPF 35; LabNo 4SP Safe Bright Tone BB Cushion; LabNo 4SP Safe Natural Tone BB Cushion; Lait Haute Protection; Lanacane Medicated Body Powder - 10%; Land Shark SPF 30; Land Shark SPF 30 Sunkissed; Laneige BB Cushion Dark; Laneige BB Cushion Medium Dark; Laneige Bb Cushion; Laneige Bb Cushion Fair; Laneige Bb Cushion Light Medium; Laneige Cushion Concealer; Laneige Cushion Concealer Fair; Laneige Cushion Concealer Light; Laneige Cushion Concealer Light Medium; Laneige Cushion Concealer Medium; Laneige Mystic Veil Foundation No. 21; Laneige Mystic Veil Foundation No. 23; Laneige Satin Finish Twin Pact No. 13; Laneige Satin Finish Twin Pact No. 21; Laneige Satin Finish Twin Pact No. 23; Laneige Satin Finish Twin Pact No. 25; Laneige Satin Finish Twin Pact No. 31; Laneige Skin Veil Base No. 20 SPF 26 Pa Plus; Laneige Skin Veil Base No. 40 SPF 26 Pa Plus; Laneige Skin Veil Base SPF 26 Pa Plus; Laneige Skin Veil NO.21 SPF 26 PAplus; Laneige Skin Veil NO.23 SPF 26 PAplus; Laneige Skin Veil NO.31 SPF 26 PAplus; Laneige Skin Veil NO.33 SPF 26 PAplus; Laneige Sliding Pact EX snow crystal No.1; Laneige Snow Bb Cream; Laneige Snow Crystal No. 21 Spf22 Paplus; Laneige Snow Crystal No. 23 Spf22 Paplus; Laneige Snow Crystal No. 31 Spf22 Paplus; Laneige Snow Crystal No. 33 Spf22 Paplus; Laneige UV TOTAL BASE; Laneige Watery Cushion Concealer no. 1; Laneige Watery Cushion Concealer no. 2; Laneige Watery Cushion Concealer no. 3; Laneige sliding pact EX snow crystal No.2; Laneige sliding pact EX snow crystal No.3; Laneige sliding pact EX snow crystal No.4; Laneige sliding pact EX snow crystal No.5; Lanoguard Multi-Purpose; Lansinoh Baby; Lantiseptic CaldaZinc; Laser Block 100 sunblock; Laser Sunscreen 100; Lassar's Paste; Lassar's Pst; Lbel Concentre Total Base Serum Ultra-fluid Foundation SPF 25 Claire 1 - Beige; Lbel Concentre Total Base Serum Ultra-fluid Foundation SPF 25 Claire 2 - Beige; Lbel Concentre Total Base Serum Ultra-fluid Foundation SPF 25 Claire 3 - Beige; Lbel Concentre Total Base Serum Ultra-fluid Foundation SPF 25 Claire 4 - Beige; Lbel Concentre Total Base Serum Ultra-fluid Foundation SPF 25 Medium 5 - Beige; Lbel Concentre Total Base Serum Ultra-fluid Foundation SPF 25 Medium 6 - Beige; Lbel Concentre Total Base Serum Ultra-fluid Foundation SPF 25 Medium 7 - Beige; Lbel Concentre Total Base Serum Ultra-fluid Foundation SPF 25 Obscure 8 - Beige; Lbel Concentre Total Base Serum Ultra-fluid Foundation SPF 25 Obscure 9 - Beige; Lbel Concentre Total Base Serum Ultra-fluid Foundation SPF 25 Tono Hut - Beige; Lbel Defense 365 Daily Protective Facial SPF 50; Lbel Defense 365 Daily Protective SPF 50; Lbel Divine Polvos Compactos Doble Uso Fps 15 Edicion De Lujo Dorado/double Use Compact SPF 15 Gold Deluxe Edition Claire 1-2-3; Lbel Divine Polvos Compactos Doble Uso Fps 15 Edicion De Lujo Dorado/double Use Compact SPF 15 Gold Deluxe Edition Claire 4; Lbel Divine Polvos Compactos Doble Uso Fps 15 Edicion De Lujo Dorado/double Use Compact SPF 15 Gold Deluxe Edition Medium 5; Lbel Divine Polvos Compactos Doble Uso Fps 15 Edicion De Lujo Dorado/double Use Compact SPF 15 Gold Deluxe Edition Medium 6; Lbel Divine Polvos Compactos Doble Uso Fps 15 Edicion De Lujo Dorado/double Use Compact SPF 15 Gold Deluxe Edition Medium 7; Lbel Divine Polvos Compactos Doble Uso Fps 15 Edicion De Lujo Dorado/double Use Compact SPF 15 Gold Deluxe Edition Obscure 8-9; Lbel Divine Polvos Compactos Doble Uso Fps 15 Edicion De Lujo Plateado/double Use Compact SPF 15 Silver Deluxe Edition Claire 1-2-3; Lbel Divine Polvos Compactos Doble Uso Fps 15 Edicion De Lujo Plateado/double Use Compact SPF 15 Silver Deluxe Edition Claire 4; Lbel Divine Polvos Compactos Doble Uso Fps 15 Edicion De Lujo Plateado/double Use Compact SPF 15 Silver Deluxe Edition Medium 5; Lbel Divine Polvos Compactos Doble Uso Fps 15 Edicion De Lujo Plateado/double Use Compact SPF 15 Silver Deluxe Edition Medium 6; Lbel Divine Polvos Compactos Doble Uso Fps 15 Edicion De Lujo Plateado/double Use Compact SPF 15 Silver Deluxe Edition Medium 7; Lbel Divine Polvos Compactos Doble Uso Fps 15 Edicion De Lujo Plateado/double Use Compact SPF 15 Silver Deluxe Edition Obscure 8-9; Lbel Effet Parfait Maximum Comfort and Long-lasting Foundation SPF 10; Lbel Effet Parfait Mineral; Lbel Effet Parfait Mineral Natural Skin Effect Mousse Foundation SPF 16 (claire 1) - Beige; Lbel Effet Parfait Mineral Natural Skin Effect Mousse Foundation SPF 16 (claire 2) - Beige; Lbel Effet Parfait Mineral Natural Skin Effect Mousse Foundation SPF 16 (claire 3) - Beige; Lbel Effet Parfait Mineral Natural Skin Effect Mousse Foundation SPF 16 (claire 4) - Beige; Lbel Effet Parfait Mineral Natural Skin Effect Mousse Foundation SPF 16 (medium 5) - Brown; Lbel Effet Parfait Mineral Natural Skin Effect Mousse Foundation SPF 16 (medium 6) - Brown; Lbel Effet Parfait Mineral Natural Skin Effect Mousse Foundation SPF 16 (medium 7) - Brown; Lbel Effet Parfait Mineral Natural Skin Effect Mousse Foundation SPF 16 (obscure 8) - Brown; Lbel Effet Parfait Mineral Natural Skin Effect Mousse Foundation SPF 16 (obscure 9) - Brown; Lbel Effet Parfait Polvos Compactos De Larga Duracion Para Rostro Fps 15 Long Lasting Compact SPF 15 (claire 1) - Beige; Lbel Effet Parfait Polvos Compactos De Larga Duracion Para Rostro Fps 15 Long Lasting Compact SPF 15 (claire 2) - Beige; Lbel Effet Parfait Polvos Compactos De Larga Duracion Para Rostro Fps 15 Long Lasting Compact SPF 15 (claire 3) - Beige; Lbel Effet Parfait Polvos Compactos De Larga Duracion Para Rostro Fps 15 Long Lasting Compact SPF 15 (claire 4) - Beige; Lbel Effet Parfait Polvos Compactos De Larga Duracion Para Rostro Fps 15 Long Lasting Compact SPF 15 (medium 5) - Beige; Lbel Effet Parfait Polvos Compactos De Larga Duracion Para Rostro Fps 15 Long Lasting Compact SPF 15 (medium 6) - Beige; Lbel Effet Parfait Polvos Compactos De Larga Duracion Para Rostro Fps 15 Long Lasting Compact SPF 15 (medium 7) - Beige; Lbel Effet Parfait Polvos Compactos De Larga Duracion Para Rostro Fps 15 Long Lasting Compact SPF 15 (obscure 8) - Brown; Lbel Effet Parfait Polvos Compactos De Larga Duracion Para Rostro Fps 15 Long Lasting Compact SPF 15 (obscure 9) - Brown; Lbel Maximum Comfort and Long-lasting Foundation SPF 10 (claire 1) - Beige; Lbel Maximum Comfort and Long-lasting Foundation SPF 10 (claire 2) - Beige; Lbel Maximum Comfort and Long-lasting Foundation SPF 10 (claire 3) - Beige; Lbel Maximum Comfort and Long-lasting Foundation SPF 10 (claire 3)- Beige; Lbel Maximum Comfort and Long-lasting Foundation SPF 10 (claire 4) - Beige; Lbel Maximum Comfort and Long-lasting Foundation SPF 10 (medium 5) - Brown; Lbel Maximum Comfort and Long-lasting Foundation SPF 10 (medium 6) - Brown; Lbel Maximum Comfort and Long-lasting Foundation SPF 10 (medium 7) - Brown; Lbel Maximum Comfort and Long-lasting Foundation SPF 10 (obscure 8) - Brown; Lbel Maximum Comfort and Long-lasting Foundation SPF 10 (obscure 9) - Brown; Lbel Ultra Balm Moisturizing Protective Balm for Lips SPF 20 Cerise Brise - Pink; Lbel Ultra Balm Moisturizing Protective Balm for Lips SPF 20 Coral Petale - Pink; Lbel Ultra Balm Moisturizing Protective Balm for Lips SPF 20 Nude Caramel - Beige; Lbel Ultra Balm Moisturizing Protective Balm for Lips SPF 20 Nude Translucide - Beige; Lbel Ultra Balm Moisturizing Protective Balm for Lips SPF 20 Rose Cotton - Pink; Lbel Ultra Balm Moisturizing Protective Balm for Lips SPF 20 Rose Paradise - Pink; Lbel Uv Defense 365; Le Blanc Light Creator Brightening Makeup Base Broad Spectrum SPF 40 Sunscreen, 10 Rosee; Le Blanc Light Creator Brightening Makeup Base Broad Spectrum SPF 40 Sunscreen, 20 Mimosa; Le Lou Collagen Day SPF 30; Le Teint Ultra Tenue Ultrawear Flawless Compact Foundation Broad Spectrum SPF 15 Suncreeen 10 Beige; Le Teint Ultra Tenue Ultrawear Flawless Compact Foundation Broad Spectrum SPF 15 Suncreeen 12 Beige Rose; Le Teint Ultra Tenue Ultrawear Flawless Compact Foundation Broad Spectrum SPF 15 Suncreeen 20 Beige; Le Teint Ultra Tenue Ultrawear Flawless Compact Foundation Broad Spectrum SPF 15 Suncreeen 21 Beige; Le Teint Ultra Tenue Ultrawear Flawless Compact Foundation Broad Spectrum SPF 15 Suncreeen 22 Beige Rose; Le Teint Ultra Tenue Ultrawear Flawless Compact Foundation Broad Spectrum SPF 15 Suncreeen 30 Beige; Le Teint Ultra Tenue Ultrawear Flawless Compact Foundation Broad Spectrum SPF 15 Suncreeen 32 Beige Rose; Le Teint Ultra Tenue Ultrawear Flawless Compact Foundation Broad Spectrum SPF 15 Suncreeen 40 Beige; Le Teint Ultra Tenue Ultrawear Flawless Compact Foundation Broad Spectrum SPF 15 Suncreeen 42 Beige Rose; Le Teint Ultra Tenue Ultrawear Flawless Compact Foundation Broad Spectrum SPF 15 Suncreeen 50 Beige; Le Teint Ultra Tenue Ultrawear Flawless Compact Foundation Broad Spectrum SPF 15 Suncreeen 60 Beige; Le Teint Ultra Tenue Ultrawear Flawless Compact Foundation Broad Spectrum SPF 15 Suncreeen 70 Beige; Le Teint Ultra Tenue Ultrawear Flawless Compact Foundation Broad Spectrum SPF 15 Suncreeen 91 Caramel; Leader Diaper Rash; Let It Block SPF-30; LifeCell bb cream Hydrating Anti-Oxidant Beauty Balm Broad Spectrum SPF 30 light; LifeCell bb cream Hydrating Anti-Oxidant Beauty Balm Broad Spectrum SPF 30 medium; Lifecell BROAD SPECTRUM SPF 30 BB Cream; Lifeguard Sunscreen; Light Beam Hand Repair Cream Broad Spectrum SPF 18; Light CC creme Broad Spectrum SPF 15 JAFRA; Light Daylight Tinted Radiance Moisturizer Broad Spectrum SPF 32; Light Foundation SPF 15; Light Tint Clear Zinc Solar Protection SPF 30; Lightweight Protection SPF 45; Likewise Facial Moisturizer - Sun Protectant SPF 50 Normal to Dry Skin; Likewise Facial Moisturizer - Sun Protectant SPF 50 Normal to Oily Skin; Likewise Facial Moisturizer - Sun Protectant SPF 50 Oily Skin; Likewise Hand Moisturizer - Sun Protectant SPF 50; Lil Goats Petite Chevre Fragrance free; Lil Goats Petite Chevre Original; Lil Goats Zinc Oxide; LincoShield; Lincoln; Lip Balm; Lip Balm SPF; Lip Balm SPF 20; Lip Protector Sunscreen SPF15; LipCoTZ Lip Balm/Sunscreen; Liquid Sunshine Mineral Sunscreen Broad Spectrum SPF 30 For Body; Liquid Sunshine Mineral Sunscreen Broad Spectrum SPF 30 For Face; Little Ones Maximum Strength; Live Clean Baby; Live Ultimate Facial Sunscreen SPF30 SPF 30; Long Wear Get Over Bb; Long Wear Makeup Broad Spectrum SPF 20 Bare Jafra; Long Wear Makeup Broad Spectrum SPF 20 Bronze Jafra; Long Wear Makeup Broad Spectrum SPF 20 Cappuccino Jafra; Long Wear Makeup Broad Spectrum SPF 20 Caramel Jafra; Long Wear Makeup Broad Spectrum SPF 20 Earth Jafra; Long Wear Makeup Broad Spectrum SPF 20 Fair Jafra; Long Wear Makeup Broad Spectrum SPF 20 Honey Jafra; Long Wear Makeup Broad Spectrum SPF 20 Natural Jafra; Long Wear Makeup Broad Spectrum SPF 20 Nude Jafra; Long Wear Makeup Broad Spectrum SPF 20 Sable Jafra; Long Wear Makeup Broad Spectrum SPF 20 Spice Jafra; Long Wear Makeup Broad Spectrum SPF 20 Tawny Jafra; Love You Baby Sun Cushion; Lucky Supersoft Premium; Luminizing Moisture Tint Sunscreen Broad Spectrum SPF 20 Blush; Luminizing Moisture Tint Sunscreen Broad Spectrum SPF 20 Bronzed; Luminizing Moisture Tint Sunscreen Broad Spectrum SPF 20 Deep Bronze; Luminizing Moisture Tint Sunscreen Broad Spectrum SPF 20 Glow; Luminizing Moisture Tint Sunscreen Broad Spectrum SPF 20 Golden; Luminizing Moisture Tint Sunscreen Broad Spectrum SPF 20 Opal; Luminizing Moisture Tint Sunscreen Broad Spectrum SPF 20 Pearl; Luminous AuraCapsule CC; Luminous Bright Aura CC; Luminous Goddess Aura Bb; Luminous Goddess Aura Live Melting Foundation; Luminous Live Aura CC; Luminous Pure Aura CC; Luxe Art Beaute SAS (69879-108-35) Cover-Expert Sunscreen Broad Spectrum SPF 15 No.8 Intense Beige, 35ml; Luxiva Changing Skin Treatment SPF 15; Lycogel Cover and Recovery - Breathable Camouflage - SPF 30 with LYCO Complex; Lycogel Cover and Recovery - Breathable Concealer - SPF 30 with LYCO Complex; Lycoris Rubus brightening BB SPF40 PA Plus Plus; M.A.C. Prep + Prime Cc Colour Correct SPF 30; M.A.C. Studio Waterweight SPF 30 Foundation; M.A.c Lightful C Marine-bright Formula SPF 30 Moisturizer; M.A.c Prep+prime Bb Beauty Balm Compact SPF 30; M.A.c Prep+prime Face Protect SPF 50; MDSolarSCIENCES Natural Mineral Sunscreen; MDSolarSciences Natural Mineral Sunscreen; MDSolarSciences Natural Mineral Sunscreen Tinted; MDSolarSciences SPF30 Plus Mineral Screen; MDSolarSciences SPF40 Mineral Screen; MDSolarSciences SPF40 Ultra-Sport; MDSolarSciences SPF50 Plus Ultra Mineral Screen; MISA Cho Bo Yang BB SPF30 No21; MISA Cho Bo Yang BB SPF30 No23; MISSHA All Around Safe Block Mild Sun SPF30; MISSHA All Around Safe Block Sebum Zero Sun; MISSHA All Around Safe Block Sun Milk For Men SPF50 40ML; MISSHA All Around Safe Block Sun Milk For Men SPF50 70ML; MISSHA All Around Safe Block Toning Sun Tension SPF50; MISSHA All Around Safe Block Waterproof Sun; MISSHA M Perfect Cover BB No 13; MISSHA M Perfect Cover BB No 21; MISSHA M Perfect Cover BB No 23; MISSHA M Perfect Cover BB No 27; MISSHA M Perfect Cover BB No 31; MISSHA M Perfect Cover BB SPF42 No23; MISSHA M Perfect Cover BB SPF42 No29; MISSHA M Signature Real Complete BB Cream SPF25 No.13 Bright Milky Beige; MISSHA M Signature Real Complete BB Cream SPF25 No.21 Light Pink Beige; MISSHA M Signature Real Complete BB Cream SPF25 No.23 Natural Yellow Beige; MISSHA Pore-fection BB Cream SPF30 No.1 Light Beige; MISSHA Pore-fection BB Cream SPF30 No.2 Natural Beige; MISSHA Signature Volume Brightening Concealer SPF30 No21; MISSHA Signature Volume Brightening Concealer SPF30 No23; MISSHA Skin Fit Stick Foundation SPF50 No.21; MISSHA Skin Fit Stick Foundation SPF50 No.23; MISSHA The Original Tension Pact Intense Moisture SPF37 No13; MISSHA The Original Tension Pact Intense Moisture SPF37 No21; MISSHA The Original Tension Pact Intense Moisture SPF37 No23; MISSHA The Original Tension Pact Perfect Cover SPF37 No 13; MISSHA The Original Tension Pact Perfect Cover SPF37 No 21; MISSHA The Original Tension Pact Perfect Cover SPF37 No 23; MISSHA The Original Tension Pact Tone Up Glow SPF30 No 13; MISSHA The Original Tension Pact Tone Up Glow SPF30 No 21; MISSHA The Original Tension Pact Tone Up Glow SPF30 No 23; MISSHA The Style Fitting Wear Foundation SPF30 No21; MISSHA The Style Fitting Wear Foundation SPF30 No23; MUSTELA Diaper rash 1 2 3; Mac Lightful C Marine Bright Formula Bs SPF 30 Moisturizer; Mac Studio Moisture Fix SPF 15; Mac Studio Waterweight SPF 30 Broad Spectrum Foundation Sunscreen; Macuzin; Magic Foundation Flawless Long-Lasting Coverage Sunscreen Broad Spectrum SPF 15; Magis Lene Brilliant Gold CC Cream XQ; Magis Lene Collagen Choc Extra Gold BB Cream; Makesense; Makeup Sun Primer; Mamonde Brightening Pact 10hr N21; Mamonde Brightening Pact 10hr N23; Mamonde Pact Blooming 21; Mamonde Pact Blooming 23; Mamonde Total Moisture BB 01; Mamonde Total Moisture BB 02; Manzatin-E Diaper Rash Skin Protectant; Marcelle Moisture Cream Eye SPF 15 / CRème Hydratante Pour Les Yeux Fps 15; Marcelle Protective Block SPF 25 Cream; Marcelle Protective Block SPF 25 Lotion; Mary Kay Lip Protector Sunscreen SPF 15; Mary Kay TimeWise Day Solution Sunscreen SPF 25; Mary Kay Timewise Sunscreen SPF 15; Mary Kay Tinted Lip Balm Sunscreen SPF 15; Mary Kay Tinted Lip Balm Sunscreen SPF 15 Apricot; Mary Kay Tinted Lip Balm Sunscreen SPF 15 Berry; Mary Kay Tinted Lip Balm Sunscreen SPF 15 Blush; Mary Kay Tinted Lip Balm Sunscreen SPF 15 Cherry; Mary Kay Tinted Lip Balm Sunscreen SPF 15 Fig; Mary Kay Tinted Lip Balm Sunscreen SPF 15 Mango; Mary Kay Tinted Lip Balm Sunscreen SPF 15 Natural; Mary Kay Tinted Lip Balm Sunscreen SPF 15 Peach; Mary Kay Tinted Lip Balm Sunscreen SPF 15 Peony; Mary Kay Tinted Lip Balm Sunscreen SPF 15 Poppy; Mary Kay Tinted Lip Balm Sunscreen SPF 15 Rose; Mary Kay Tinted Moisturizer Sunscreen SPF 20 Beige 1; Mary Kay Tinted Moisturizer Sunscreen SPF 20 Beige 1 (Drug Facts); Mary Kay Tinted Moisturizer Sunscreen SPF 20 Beige 2; Mary Kay Tinted Moisturizer Sunscreen SPF 20 Beige 2 (Drug Facts); Mary Kay Tinted Moisturizer Sunscreen SPF 20 Bronze 1; Mary Kay Tinted Moisturizer Sunscreen SPF 20 Bronze 1 (Drug Facts); Mary Kay Tinted Moisturizer Sunscreen SPF 20 Bronze 2; Mary Kay Tinted Moisturizer Sunscreen SPF 20 Bronze 2 (Drug Facts); Mary Kay Tinted Moisturizer Sunscreen SPF 20 Ivory 1; Mary Kay Tinted Moisturizer Sunscreen SPF 20 Ivory 1 (Drug Facts); Mary Kay Tinted Moisturizer Sunscreen SPF 20 Ivory 2; Mary Kay Tinted Moisturizer Sunscreen SPF 20 Ivory 2 (Drug Facts); Mary Kay Tinted Moisturizer With Sunscreen SPF 20; Matte Moisture Tint Sunscreen Broad Spectrum SPF 15 Beige Rose; Matte Moisture Tint Sunscreen Broad Spectrum SPF 15 Chamomile; Matte Moisture Tint Sunscreen Broad Spectrum SPF 15 Hazel; Matte Moisture Tint Sunscreen Broad Spectrum SPF 15 Linen; Matte Moisture Tint Sunscreen Broad Spectrum SPF 15 Nude; Matte Moisture Tint Sunscreen Broad Spectrum SPF 15 Porcelain; Mattifying Perfector SPF 20 Sunscreen; Maui Naturals All Natural Sunscreen; Maui Surfer Honey Natural Sunscreen; Max Hyaluronic Stemcell Bb; Maximum Strength Diaper Rash; Maximum Strength Original Diaper Rash; May Newyork Super Sun; May Newyork Super Sun 10g; Maya Solar Natural Sunscreen 15 SPF; Maya Solar Natural Sunscreen 30 SPF; Maya Solar Natural Sunscreen 45 SPF; Mayinglong Bezornil Hemorrhoidal; Mayinglong Hemorrhoids; McKesson Skin Protectant; McKesson Unna Boot 3; McKesson Unna Boot 4; McKesson Unna Boot with Calamine 3; McKesson Unna Boot with Calamine 4; Md Formulations Total Protector 15; Md Formulations Total Protector 30; Mdsolarsciences Natural Mineral Sunscreen Kid; Mdsolarsciences SPF 30 Mineral Tinted; Mdsolarsciences SPF 50 Mineral; Meaningful Beauty Cindy Crawford Maintenance 1plus Daily Moisture SPF 20 UVA/UVB; Mecca Ointment; MedPak Derma Guard; Medi-pak; MediSpa Sunblock sunblock; Medicated; Medicated Body; Medicated Body Powder; Medicated Cornstarch Baby Powder; Medicated Cream; Medium Beige Foundation SPF 15; Medium Dark Foundation SPF 15; Medium Deep Foundation SPF 15; Medium Tan Foundation SPF 15; MediumCC creme Broad Spectrum SPF 15 JAFRA; Medline Remedy Essentials Protectant Paste; Medpride; Medpride EN SHIELD ALOE SOFT VITAMIN ENRICHED; Medpride En Shield; Meijer AM Facial Moisturizing Broad Spectrum SPF 30 Sunscreen; Meijer Baby Quick Relief Diaper Rash; Meijer Baby Tear Free SPF 50; Meijer Clear Zinc SPF 50; Meijer Elements Maximum Strength For Diaper Rash; Meijer Kids Tear Free SPF 50; Meijer Zinc SPF 50; Melvita PROSUN High protection sunscreen Broad Spectrum SPF 30; Melvita PROSUN High protection sunscreen Broad Spectrum SPF 50; Melvita PROSUN SPF 15 Sun; Melvita PROSUN SPF 30 Sun; Members Mark Diaper Rash; Menthol and Zinc Oxide; Mezinc; Miami Beach White Gold SPF-30 Sunscreen; Mineral Baby SPF 50 Broad Spectrum; Mineral Baby Unscented SPF 50 Broad Spectrum; Mineral Beauty Balm Broad Spectrum SPF 50 Sunscreen UVA-UVB Suncreen Light/Medium; Mineral Beauty Balm Broad Spectrum SPF 50 Sunscreen UVA-UVB Suncreen Medium/Dark; Mineral Broad Spectrum SPF 50 Sunscreen UVA-UVB Suncreen; Mineral Concealer SPF 20; Mineral Corrector Palette SPF 20 Sunscreen; Mineral Creme Broad Spectrum SPF 30 Sunscreen UVA-UVB Suncreen; Mineral Face Matte Cucumber SPF 30 Broad Spectrum; Mineral Face Matte Tint Unscented SPF 30 Broad Spectrum; Mineral Foundation SPF 15; Mineral Foundation SPF 30-3W; Mineral Foundation SPF 30-5W; Mineral Lip Bonfire SPF 30 Broad Spectrum; Mineral Lip Firecracker SPF 30 Broad Spectrum; Mineral Lip Nude Beach SPF 30 Broad Spectrum; Mineral Lip Skinny Dip SPF 30 Broad Spectrum; Mineral Lip Summer Crush SPF 30 Broad Spectrum; Mineral Lip Tan Line SPF 30 Broad Spectrum; Mineral Moisture Defense Broad Spectrum SPF 50 Sunscreen UVA-UVB Suncreen; Mineral Oil, Pramoxine Hydrochloride and Zinc Oxide; Mineral SPF 30 Sun; Mineral Sport Citrus Mimosa SPF 30 Broad Spectrum; Mineral Sport Golden Tint SPF 50 Broad Spectrum; Mineral Sport Stick Untinted SPF 50 Broad Spectrum; Mineral Sunscreen; Mineral Sunscreen Broad Spectrum SPF 30; Mineral Sunscreen Broad Spectrum SPF 40 Sunscreen UVA-UVB Sunscreen; Mineral Sunscreen Broad Spectrum SPF 45; Mineral Sunscreen Moisturizer Broad Spectrum SPF 20; Mineral Sunscreen SPF 30; Mineral Sunscreen Stick SPF 50 Supergoop; Mineral UV Shield SPF30; Mineral Wear; Mineral Wear All-in-1 ABC Cushion Foundation; Mineral Wear Oh So Radiant Powder SPF 20; Mineral Wear Talc Free Airbrushing Pressed Powder SPF 30; Mineral Wear Talc Free Cushion Corrector Primer Duo SPF 20; Mineral Wear Talc Free Mineral Airbrushing Bronzer SPF 30; Mineral Wear Talc-Free Airbrushing Loose Powder SPF 30; Mineral Wear Talc-Free Correcting Primer SPF 15; Mineral Wear Talc-Free Illuminating Powder Duo SPF 16; Mineral Wear Talc-Free Mineral Face Powder SPF 16; Mineral Wear Talc-Free Mineral Loose Powder SPF 16; Mineral Wear Talc-free Mineral Airbrushing Blush SPF 30; Minus-Sol Facial Sun Protection Sunscreen Broad Spectrum SPF 30 Plus Ivory; Minus-Sol Facial Sun Protection Sunscreen Broad Spectrum SPF 30 Plus White; Miracle Matt BB Cream; Miracle Skin Transformer Face Broad Spectrum SPF 20 Sunscreen; Miractil; Misa Cho Bo Yang Bb Spf30 Pa Plus Plus No.1 Natural Beige; Missha All Around Safe Block Soft Finish Sun Milk 40ml; Missha All Around Safe Block Soft Finish Sun Milk 70ml; Missha All Around Safe Block Soft Finish Sun Milk Broad Spectrum SPF 50 Plus; Missha All Around Safe Block Waterproof Sun Milk Spf50 40ml; Missha All Around Safe Block Waterproof Sun Milk Spf50 70ml; Missha Closing Cover Concealer Spf30 No21; Missha Closing Cover Concealer Spf30 No23; Missha Glam Silky Body Balm SPF 27; Missha M Perfect Cover Bb Spf42; Missha M Prism Bright On Auto No.2 Spf35 Pa Plus Plus Plus; Missha M Radiance Two Way Pact Spf27 No21; Missha M Radiance Two Way Pact Spf27 No23; Missha M Signature Real Complete Bb Honey Beige; Missha M Signature Real Complete Bb No27; Missha M Signature Real Complete Bb Spf25 Pa Plus Plus; Missha M Swirl Bb Sun Balm Spf50 Plus Pa Plus Plus Plus No.21; Missha Signature Aura Tension Deep Moisture No 21; Missha Signature Aura Tension Deep Moisture No 23; Missha Signature Complexion Coordinating Bb Beige Broad Spectrum Spf43; Missha Signature Complexion Coordinating Bb Honey Beige; Missha Signature Complexion Coordinating Bb White Broad Spectrum Spf43; Missha Signature Dramatic Whitening Pact No.2 Spf50 Plus Pa Plus Plus Plus; Missha Signature Wrinkle Fill Up Bb No 21; Missha Signature Wrinkle Fill Up Bb No 23; Missha Signature Wrinkle Filler Bb Spf37 Pa Plus Plus No.23; Missha Time Revolution White Cure Blanc Sun Protector Nw Broad Spectrum Spf50 Plus; Missha Time Revolution White Cure Uv Sun Protector Spf50 Plus Pa Plus Plus Plus; Miunori Natural Baby Sunscreen; Mizon Uv Sun Protector; Moist Essential Pact 21 Light Beige; Moist Essential Pact 23 Natural Beige; Moist Moisture Bb; Moist Pact No.21 Bright Beige; Moist Pact No.23 Natural Beige; Moisture Restore Day Oil Free Protective Lotion SPF 15 (combination To Oily Skin); Moisture Restore Day Protective Lotion SPF 15 Normal To Dry Skin; Moisture Surge Cc Broad Spectrum SPF 30 Hydrating Colour Corrector; Moisturizer SPF 15; Moisturizing Face Screen Light Tint SPF 30; Moisturizing Face Screen Medium Tint SPF 30; Moisturizing Face Screen SPF 30; Moisturizing Sunscreen SPF; Moonflash Cushion; Moore Brand Unna Boot; More Than Moisture SPF 30; Mt Everest Skreen; Mustela 50 Sunscreen; Mustela Broad spectrum SPF 50 plus mineral sunscreen; Mustela SPF 50; Mustela Stelactiv; Mustela Vitamin Barrier; My Fair Baby Diaper Rash; My Sunny Powde Ry Finish Sun Milk; Myeonghan Miindo Hwansaenggo Gold Essence Bb SPF 35 30100317; Myung Han Mi In Do Recovery Bb Spf25 Pa; Myung Han Mi In Do Two Way Cake Spf35 Pa Nb21; Myung Han Mi In Do Two Way Cake Spf35 Pa Nb23; NBCeutical; NEOGEN DERMALOGY Day-Light Protection Sun Screen SPF50; NP set BB CREAM Broad Spectrum SPF 20; Naked One and Done Cream Light; Naked Skin One and Done Dark; Naked Skin One and Done Deep; Naked Skin One and Done, Medium; Naked Skin One and Done, Medium Dark; Naked Skin One and Done, Medium Light; Napoleon Perdis Auto Pilot BBB Beauty Boosting Balm Broad Spectrum SPF 30 MEDIUM-DARK; Nars Face Glow - Polynesia; Nars Face Glow - Seychelles; Nars Gel Fraicheur - Alaska; Nars Gel Fraicheur - Antilles; Nars Gel Fraicheur - Monte Carlo; Nars Gel Fraicheur - ST-moritz; Naruko Taiwan Magnolia Firming Smooth Finish Cream Makeup; Natria Brightening SPF 15; Natria Nourishing Daily Defense; Natria-balancing Daily Defense Lotion Spf15; Natria-nourishing Daily Defense Lotion SPF 15; Natural Blend SPF 30 Sunscreen; Natural Diaper Rash; Natural Finish Pressed Foundation SPF 20 Sunscreen; Natural SPF 28 Soy Free; Natural SUN SPF 26 Unscented; Natural SUN SPF 30 Active Lifestyles; Natural SUN SPF 30 Green Tea; Natural SUN SPF 30 Unscented; Natural SUN Saving Face SPF 15; Natural Sun AQ Power Long Lasting Sun Spf45 Pa; Natural Sun Eco Calming Sensitive Sunscreen Cream SPF 40; Natural Sun Eco Oil Clear Sun Cream Spf50+ Pa+++; Natural Sun Eco Oil Clear Sunscreen Cream 50 SPF; Natural Sun Eco Photogenic Sun Blur Spf50+ Pa+++; Natural Sun Eco Power Long-lasting Sunscreen Cream Spf50; Natural Sun Eco Sun Cream SPF 50+ Pa+++; Natural Sunscreen; Natural Sunscreen Broad Spectrum SPF 30 Baby Bum; Naturals by Safety 1st; Nature Origin Collagen Bb 01 Light Beige; Nature Origin Collagen Bb 02 Natural Beige; Nature Origin Collagen Bb Cre Am 10 Dark Beige; Nature Origin Collagen Bb Original; Nature Origin Cover Two Way Pact 01 Light Beige; Nature Origin Cover Two Way Pact 02 Natural Beige; Nature's Gate Aquablock Lotion Spf30; Natureplex; Natures Gate Aqua SPF 50; Natures Gate Face Broad Spectrum Sunscreen SPF 25; Natures Gate Face SPF 25; Natures Gate Kids SPF 20 Mineral; Natures Gate Kids SPF 50; Natures Gate Sport SPF 20 Mineral; Natures Gate Sport SPF 50; Natures Gate kids SPF 50; Nbb; Near Skin Dustless Defense Sunblock; Nelly Devuyst Organic Sunscreen Natural Protection Broad Spectrum Spf30; Nena Natural Oceanic Clay Skin Brightening Daily Moisturizing Cream, SPF 30; Neo Classic Homme Leports Sun Cream SPF 50+ Pa+++; Neo Classic Homme Sports 31700111; NeoStrata Sheer Physical Protection SPF 50; Neogen Dermalogy Day Light Protection Sun Screen Spf50; Neostrata Oil Free Anti Aging Sunscreen Lotion; Neova DNA Damage Control - Active Broad Spectrum SPF 43; Neova DNA Damage Control - Active SPF 45; Neova DNA Damage Control - Everyday Broad Spectrum SPF 44; Neova DNA Damage Control - Everyday SPF 43; Neova DNA Damage Control - Silc Sheer Broad Spectrum SPF 40; Neova Smartsunscreen - Active; Neova Smartsunscreen - Everyday; Neova Smartsunscreen - Silc Sheer 2.0; Nestabs ONE; Neutrogena Complete Acne Therapy Solution; Neutrogena Complete Acne Therapy System; Neutrogena Day Lotion SPF 15; Neutrogena Healthy Defense Daily Moisturizer SPF 30; Neutrogena Healthy Defense Daily Moisturizer Sunscreen SPF30 Light Tint; Neutrogena Healthy Defense SPF50; Neutrogena Pure and Free; Neutrogena Pure and Free Baby Faces Ultra Gentle Sunblock SPF 50plus; Neutrogena Pure and Free Baby Faces Ultra Gentle Sunscreen Broad Spectrum SPF45 Plus; Neutrogena Pure and Free Baby Sunscreen Broad Spectrum SPF60 Plus; Neutrogena Pure and Free Sunscreen Broad Spectrum SPF50; Neutrogena Pure and free Baby Sunblock SPF 60plus Purescreen; Neutrogena Sensitive Skin Sunblock SPF60 Plus; Neutrogena Sensitive Skin Sunscreen Broad Spectrum SPF60 Plus; Neutrogena Sheer Zinc DRY-TOUCH Sunscreen Broad Spectrum SPF30; Neutrogena Sheer Zinc DRY-TOUCH Sunscreen Broad Spectrum SPF50; Neutrogena Visibly Firm Face Lotion SPF 20; Neutrogena naturals Brightening Daily Moisturizer Broad Spectrum SPF 25; Neutrogena pure and free baby SUNSCREEN Broad Spectrum SPF 50; Neutrogena sensitive skin face Liquid Sunscreen Broad Spectrum SPF50; NewGel Plus SPF; NewGel UV Plus SPF30; Niaacinamide Azelaic AC TURMER FA B6 Zinc Ox Copper; Nicole Miller Day Cover Creme To Powder Foundation; Nicole Miller Day Cover Perfecting Foundation; Nicole Miller Timeless Age-defying Hand Creme; Nicomide; No Concealer Concealer; No Concealer Concealer No.2 Light to Medium; No Foundation Foundation Fair; No Foundation Foundation No.1 Fair to Light; No Foundation Foundation No.2 Light to Medium; No Foundation SPF 30; No Makeup Concealer Fair Broad Spectrum SPF 35; No Makeup Concealer Medium Broad Spectrum SPF 35; No Makeup Foundation Fair Broad Spectrum SPF 30; No Makeup Foundation Fair-Light Broad Spectrum SPF 30; No Makeup Foundation Light Broad Spectrum SPF 30; No Makeup Foundation Light-Medium Broad Spectrum SPF 30; No Makeup Foundation Tan Broad Spectrum SPF 30; No-AD SPF 45 Babies Sun Protection; NoTS UV PROTECTION SUN; Noevir N5; Noevir Raysela; Nourish Your Skin Micronized Zinc Oxide SPF 30 Organic Sunscreen; Novana Protect Barrier; Noxzema Skin Fitness Skin Endurance With Uv Protectant; Nu Skin 180 Degree UV Block Hydrator SPF 18; Nu Skin 180 Degree UV Defense Hydrator SPF 18; Nu Skin Sunright 35 Broad Spectrum SPF 35; Nu Skin ageLOC Me Day S2 Broad Spectrum SPF 20; Nu Skin ageLOC Me Day T2 Broad Spectrum SPF 20; Nu-derm Fx Normal Dry / Normale Sèche; Nu-derm Fx Normal Oily/ Normale Grasse; Nu-derm Healthy Skin Protection SPF 35; Nu-derm Normal Dry/ Normale Sèche; Nu-derm Normal Oily / Normale Grasse; Nu-derm Physical Uv Block SPF 32; Nu-derm Physical Uv Broad Spectrum SPF 32; Nu-derm Starter Set Normal-dry Skin Transformation System; Nu-derm Starter Set Normal-oily Skin Transformation System; Nu-derm Sun Shield Broad Spectrum SPF 50 Matte Sunscreen; Nu-derm Sun Shield SPF 50 Sunscreen; Nu-derm System Normal-dry Skin Transformation; Nu-derm System Normal-dry Skin Transformation Trial; Nu-derm System Normal-oily Skin Transformation; Nu-derm System Normal-oily Skin Transformation Trial; Nu-derm Travel Set Normal/dry Skin Transformation System; NuGLOW DAYTIME THERAPY With SPF 15; Nutrimen C Re9 Reality Moisturizing Sunscreen SPF 8; Nutrimenc Re9 Reality Moisturizer With SPF 8; Nwc21 Natural White Cream; O HUI Perfect Sun Black EX Broad Spectrum SPF 50; OCLIPSE Sunscreen plus Primer Broad-Spectrum SPF 30 UVA/UVB Protection; OHUI Powdery Metal Cushion Compact 01 Light Beige; OHUI Powdery Metal Cushion Compact 02 Natural Beige; OHUI SUN SCIENCE Perfect Sunblock black EX plus; OHUI Sun Science Powder Sun Block Natural Skin; OHUI Sun Science Sun Block EX plus Beige; OHUI Sun Science intensive sunblock cake EX; OP spf45 Face Clear Zinc Potion; Obagi; Obagi C-system C-sunguard SPF 30; Obagi Medical - Nu-Derm System - Normal to Dry - Skin Transformation Kit; Obagi Medical - Nu-Derm System - Normal to Dry - Skin Transformation Trial Kit; Obagi Nu-Derm FX System - Normal to Dry; Obagi Sun Shield MINERAL Broad Spectrum SPF 50 Sunscreen; Obagi Sun Shield TINT Cool Sunscreen Broad Spectrum SPF 50; Obagi Sun Shield TINT Warm Sunscreen Broad Spectrum SPF 50; Obagi-C Rx System C-sunguard SPF 30; Obagi-C Rx System Normal-dry Skin Intervention; Obagi-C Rx System Normal-oily Skin Intervention; Obagi-C Rx System Sun Shield Broad Spectrum SPF 50 Matte Sunscreen; Obagi-C System; Obagi-C System Skin Intervention Kit Ensemble Intervention; Ocean Friendly Sunscreen SPF30 Broad Spectrum; Ocuvel; Ohui Sun Science Perfect Sunblock Red EX; Ohui Sunscience Luminous Whitening Sunblock; Oi Lin Deep Moisture Sunscreen SPF 25; Oi Lin Deep Moisture Sunscreen SPF 25 Tinted; Oil Control Mattifier SPF 15; Oil Control Mattifier SPF 15 Pa++; Oil Of Olay Complete Care Daily Uv Protection Moisturizing Cream; Oil Of Olay Complete Care Daily Uv Protection Moisturizing Lotion; Oil Of Olay Protective Moisture Creme; Oil Of Olay Protective Moisture Lotion; Oil Of Olay Protective Renewal Lotion; Oil of Beauty; Olay Age Defying Advanced With Hyaluronic Acid Hydrating Moisturizer Lotion With Sunscreen; Olay Age Defying Advanced with Hyaluronic Acid Hydrating MoisturizerProtective Renewal Broad Spectrum SPF 15; Olay Age Defying Classic Daily Renewal Broad Spectrum SPF 15; Olay Age Defying Classic Daily Renewal Lotion With Sunscreen; Olay Age Defying Classic Protective Renewal Broad Spectrum SPF 15; Olay Age Defying Mature Skin Broad Spectrum SPF 15; Olay Age Defying Mature Skin Protective Renewal Broad Spectrum SPF 15; Olay Complete All Day Moisture Sensitive with Broad Spectrum SPF 15; Olay Complete All Day Moisture With Sunscreen Broad Spectrum SPF 30 Sensitive; Olay Complete All Day Moisturizer Broad Spectrum SPF 15 Sensitive; Olay Complete All Day Moisturizer Broad Spectrum SPF 30 Sensitive Skin; Olay Complete All Day Moisturizer Sensitive Broad Spectrum SPF 15; Olay Complete All Day Moisturizer with Sunscreen Broad Spectrum SPF 30 Sensitive; Olay Complete Allday Moisture Cream - Uv Defense; Olay Complete Allday Moisture Lotion - Uv Defense; Olay Complete Plus Ultra Rich Day Cream; Olay Complete Plus Ultra Rich Uv Moisturizer; Olay Complete Radiance Tinted Moisturizer; Olay Complete Spf30 Defense All Day Moisturizer - Sensitive Skin; Olay Complete UV365 Daily Moisturizer Sensitive Broad Spectrum SPF 15; Olay Complete Uv365* Daily Moisturizing Cream With Sunscreen Broad Spectrum SPF 15 Sensitive; Olay Complete Uv365* Daily Moisturizing Lotion With Sunscreen Broad Spectrum SPF 15 Sensitive; Olay Complete Uv365* Daily Moisturizing Lotion With Sunscreen Broad Spectrum SPF 30 Sensitive; Olivene Diaper Rash; Ology; Omar Sharif Everyday Sun Protection Broad Spectrum SPF 50; Omar Sharif Silk Sun BB Broad Spectrum SPF 45; Once Finishing; One Essential City Defense; Optical Illusion Foundation SPF 15; Orchid Secret Foundation 21 Spf28 Pa Plus Plus; Orchid Secret Foundation 23 Spf28 Pa Plus Plus; Orchid Secret Pact Spf35 Pa Plus Plus Plus 21 Orchid Ivory; Orchid Secret Pact Spf35 Pa Plus Plus Plus 23 Orchid Beige; Organic Diaper Rash Cream; Organic Rose Face Sunscreen; Organic Rose Lip Balm Sunscreen; Organic Sunscreen; Organic Wear BB All in One Beauty Balm Cream; Organic Wear CC Cream SPF 20; Organic Wear Work It Marathonista Tinted Moisturizer; Origins Ginzing SPF 40 Energy-boosting Tinted Moisturizer; Othree 50 Whitening; Outback 2 in 1 Protection; Outback 2-in-1 Insect Repellent and Protective Sunscreen; Outback Series 2-in-1 Sunscreen; Ozonol Ont; PAULAS CHOICE HYDRALIGHT SHINE-FREE DAILY MINERAL COMPLEX Broad Spectrum SPF 30; PCA SKIN Body Hydrator SPF30; PEAK Sunscreen 100 Natural SPF 30; PERFECT 6 in one BB Light; PERFECT 6 in one BB Natural; PHACE BIOACTIVE SOOTHING DAY Plus PRIMER BROAD-SPECTRUM SPF 46; PNV Ferrous Fumarate Docusate Folic Acid; PNV Prenatal Plus Multivitamin; PNV-First; PNV-Select; PREP (plus) PRIME BEAUTY BALM SPF 35; PREP and PRIME FACE PROTECTION SPF 50; PROTEC Plus NATURAL SPF 30; Pacifica CC broad spectrum SPF 17 LIGHT; Pacifica CC broad spectrum SPF 17 MEDIUM; Pamela Metamorphosis Sunscreen SPF 30; Panama Jack 30 Broad Spectrum SPF 30 Clear Zinc; Pasta de Lassar Andromaco; Pate D Unna; Paul and Joe Protective Foundation Primer Uv; Pedi-Derm Bum; Penaten Soothing Lotion; PerCara Original Medicated Powder; Perfect Finish SPF-30; Perfect Purity Medicated Body Powder; Perfect Skin Face Salve; Perfecting BB Beauty Balm Natural Tint SPF 30; Perfecting Liquid Foundation Alabaster SPF 15; Perfecting Liquid Foundation Buff SPF 15; Perfecting Liquid Foundation Deep Beige SPF 15; Perfecting Liquid Foundation Deep Bronze SPF 15; Perfecting Liquid Foundation Earthy Beige SPF 15; Perfecting Liquid Foundation Espresso SPF 15; Perfecting Liquid Foundation Fair SPF 15; Perfecting Liquid Foundation Golden Beige SPF 15; Perfecting Liquid Foundation Golden Bronze SPF 15; Perfecting Liquid Foundation Honey Beige SPF 15; Perfecting Liquid Foundation Neutral Beige SPF 15; Perfecting Liquid Foundation Porcelain SPF 15; Perfecting Liquid Foundation Rosy Beige SPF 15; Perfecting Liquid Foundation Soft Blush SPF 15; Perfecting Liquid Foundation Toffee Bronze SPF 15; Perfecting Protection SPF 30; Perfectly Posh THROWING SHADE SPF30 Broad Spectrum Facial Sunscreen; Periguard; Perricone No foundation foundation; Persimmon & Cantaloupe Moisturizing Day Cream SPF 32; Persimmon and Cantaloupe Day Sunscreen Broad Spectrum SPF 32 Oily to Normal; Personal Blend Foundation SPF 15; Personal Care; Peter Island Natural Mineralspf 60 SPF 60; Peter Island Sunscreen SPF 50; Peter Thomas Roth CC Light to Medium; Pharmaskincare Solar-C Moisturizer SPF 15; Pharmaskincare Solar-C Moisturizer SPF 50; Physical Facial Block SPF 30; Phytogenic Infinite Makeup Base Spf15 Green; Phytogenic Infinite Makeup Base Spf15 Purple; Phytogenic Infinte 37100457; Phytoplex Clear Aid; Pink Stick; Placenta EX Essence Bb Spf50plus Pa Plus Plus Plus; Placenta EX Sun Balm Spf50plus Pa Plus Plus Plus; Plagentra Soothing Revolution Bb; Planet Sun SPF 30; Pollution Shield SPF 46 Broad Spectrum Sunscreen; Ponds Luminous Finish BB cream Light SPF 15; Ponds Luminous Finish BB cream Medium SPF 15; Poudre; Powerproof Sunscreen 100; Poxiezzz; PreNatal 19; PrePLUS; PreQue 10; PreTAB; Prefera OB plus DHA; PreferaOB; PreferaOB ONE; PreferaOB One; PreferaOB plus DHA; Preferred Plus Body Powder; Preferred Plus Medicated Baby; Premier Value Calaclear; Premier Value Calagesic; Premier Value Diaper Rash; Premier Value Medicated Body Powder; Premier Value Zinc Oxide; Premiere Value Calamine; Premium Endurance Sunscreen 30; Premium Endurance Sunscreen 50; Premium Gold Mineral BB; Premium Natural Sunscreen Baby Bum 30; Premium Natural Sunscreen Broad Spectrum SPF 30 Baby Bum; Premium Natural Sunscreen Loition Baby Bum; Premium Sunscreen Face SPF-50; Premium Sunscreen SPF-30; Prenatal Plus; Prenatal Plus Iron; Prenatal Vitamins Plus; Prenatal, DHA; Prenate Elite; Prenate Star; Prep (and) Prime Cc Color Correct Spf30 Broad Spectrum; Prep Plus Prime Bb Beauty Balm Compact Broad Spectrum SPF 30; Prep and Prime Fortified Skin Enhancer SPF 35; Presage Moisturizer SPF 15; Prescriptives Flawless Skin Total Protection Makeup SPF 15; Prescriptives Site Unseen Brightening Concealer Broad Spectrum SPF 15; Prescriptives Site Unseen Brightening Concealer SPF 15; Prevention + Daily Matte Moisturizer Oil-free; Prevention + Daily Ultimate Protection Moisturizer; Prevention + Daily Ultra Sheer Spray; Prevention daily tinted mositurizer oil-free Tinted 30; Prevex Diaper Rash Crm; PreviSense Moisture Barrier with Protease Technology; Prime Primer Bb Nude; Prime Primer Bb Sheer; Primer; Principal Secret Reclaim Botanical (with SP) Radiant Recovery Day Broad Spectrum SPF 15; Private Label Moisturizing Oil Free Paraben Free SPF43; Pro Perfecting Minerals Broad Spectrum SPF 25 Sunscreen - Shade 1; Pro Perfecting Minerals Broad Spectrum SPF 25 Sunscreen - Shade 2; Pro Perfecting Minerals Broad Spectrum SPF 25 Sunscreen - Shade 3; Pro Perfecting Minerals Broad Spectrum SPF 25 Sunscreen - Shade 4; Pro Triple Protection Factor Broad Spectrum SPF 50 Sunscreen; Pro Triple Protection Factor Lip Balm Broad Spectrum SPF 30 Sunscreen; Pro Vive SPF 30; Pro-derm 50; Pro-derm Cream; Pro-derm Fps 60 SPF; Proactiv Oil Free Moisture SPF 15 Moisturizer; Proactiv SPF 15 Moisturizer; Proactiv Solution Oil Free Moisture SPF 15 Moisturizer; Promise Organics Diaper Cream; Propolis 27 Cover Cushion; Propolis 39 Cc; Propolis 90 Ampoule; Protect and Serve Tinted Sun Shield SPF 30; Protecting Hydrator SPF 30; Protection U.V. Broad Spectrum SPF 25; Protective Base Sun for Dry Skin; Protective Base Sun for Oily Skin; Protective Cream; Protective Moisturizer SPF 15; Protecto Barrier Cream; Protecto Barrier Cream - 15%; Provence Air Skin Fit Blur Pact; Provence Air Skin Fit Foundation Ginger Beige C02; Provence Air Skin Fit Foundation Pink Beige C01; Provence Air Skin Fit Foundation W01 Light Beige; Provence Air Skin Fit Foundation W02 Natural Beige; Provence Air Skin Fit Oi L Control Bb Cushion 01 Light Beige; Provence Air Skin Fit Oi L Control Bb Cushion 02 Natural Beige; Provence Air Skin Fit Pact 02 Natural Beige; Provence Calendula Ice Puff Sun; Provence Calendula No Sebum Sun Block; Provence Calendula No Sebum Sun Block Spf45; Provence Calendula Sun; Provence Calendula Waterproof Sun Block; Provence Foundation Spf31 Pa Plus Plus No 21; Provence Foundation Spf31 Pa Plus Plus No 23; Provence Intensive Ampoule Bb 01 Light Beige; Provence Intensive Ampoule Bb 02 Natural Beige; Provence Intensive Ampoule Bb Cushion 01 Light Beige; Provence Intensive Ampoule Bb Cushion 02 Natural Beige; Provence Intensive Ampoule Foundation 01 Light Beige; Provence Intensive Ampoule Foundation 02 Natural Beige; Provence Intensive Ampoule Make Up Base 01 Mint; Provence Intensive Ampoule Make Up Base 02 Lavender; Provence Makeup Base Spf30 Pa Plus Plus 01 Mint; Provence Makeup Base Spf30 Pa Plus Plus 02 Lavender; Provence Melting Foundation Bright Beige Spf32 Pa Plus Plus; Provence Melting Foundation Natural Beige Spf32 Pa Plus Plus; Provence Two Way Pact Spf50plus Pa Plus Plus Plus 01 Light Beige; Provence Two Way Pact Spf50plus Pa Plus Plus Plus 02 Natural Beige; Provence Water Drop Pact 21 Light Beige; Provence Water Drop Pact 23 Natural Beige; Publix Calamine Medicated; Publix Clear Anti-Itch; Pur Air Perfection CC Cushion Foundation Broad Spectrum SPF 50 Plus (DARK); Pur Air Perfection CC Cushion Foundation Broad Spectrum SPF 50 Plus (LIGHT); Pur Air Perfection CC Cushion Foundation Broad Spectrum SPF 50 Plus (MEDIUM); Pur Air Perfection CC Cushion Foundation Broad Spectrum SPF 50 Plus (TAN); Pura Vida Sunscreen; Pure Bb 21 Light Beige; Pure Bb 23 Light Beige; Pure Bb Cre Am 21 Light Beige; Pure Bb Cre Am 23 Natural Beige; Pure Foundation 21 Pink Beige; Pure Foundation 23 Natural Beige; Pure Foundation 23 Natural Beige Spf40; Pure Foundation 25 Sand Beige; Pure Foundation 35 Tan Brown; Pure Haven Essentials; Pure Perfection Classic Oil Free Moisturizer With SPF 15; Pure Transformation Sheer Clear; Pure Transformation Sheer Dark; Pure Transformation Sheer Fair; Pure Transformation Sheer Light; Pure Transformation Sheer Medium; Pure Transformation Sheer Tan; PureLight SPF 30; Purely Simple Sunscreen Stick Broad Spectrum SPF 30; Puristics Baby Zinc Oxide Diaper Rash; Puristics Totally Ageless SPF 15 Daily Anti-aging; Puristics Totallyageless SPF 15 Daily Anti-aging; Purlisse BB Tinted Moist; Purlisse BB Tinted Moist Light; Purlisse BB Tinted Moist SPF30 Deep; Purlisse BB Tinted Moist SPF30 Fair; Purlisse BB Tinted Moist SPF30 Light; Purlisse BB Tinted Moist SPF30 Medium; Purlisse BB Tinted Moist SPF30 Medium Deep; Purminerals 4-in-1 Mineral Tinted Moisturizer Broad Spectrum SPF 20 (DARK); Purminerals 4-in-1 Mineral Tinted Moisturizer Broad Spectrum SPF 20 (LIGHT); Purminerals 4-in-1 Mineral Tinted Moisturizer Broad Spectrum SPF 20 (MEDIUM); Purminerals 4-in-1 Mineral Tinted Moisturizer Broad Spectrum SPF 20 (TAN); Purple Stick; Purple Sunblock; Putto Ato Secret Uv Face SPF 6; Pyratine XR Creme With Sunscreen Broad Spectrum SPF30; QC Diaper Rash; Quality Choice Anti-Itch Clear; Quality Choice Anti-itch Medicated; Quality Choice Calamine; Quality Choice Maximum Strength Diaper Rash; Quality Choice Maximum Strength Zinc Oxide; Quality Choice Quick Relief Diaper Rash; Queens Rose Perfection Cover Cushion Pact; Queens Rose Rose Skin Perfection Bb; Quick Relief Creamy Diaper Rash; Quo Cc Cream; Quo Luminous Finish Foundation; RE9 Advanced Brightening Sample Pack; RE9 Advanced LIFTING AND CONTOURING BROAD SPECTRUM SPF 15 SUNSCREEN; RE9 Advanced for Men Anti-Aging Moisturizer Broad Spectrum SPF 15 Sunscreen; RE9 Advanced for Men Anti-Aging Skincare Line; RE9 Advanced for Men Deluxe Try Me Set; REMEDY Calazime Skin Protectant; REN Satin Perfection BB Sunscreen Broad Spectrum SPF 15 Light-Medium; RODAN FIELDS SOOTHE 4 Mineral Sunscreen BROAD SPECTRUM SPF 30; RODAN and FIELDS ENHANCEMENTS BRONZE; RODAN and FIELDS ENHANCEMENTS LIGHT; RODAN and FIELDS ENHANCEMENTS MEDIUM; RODAN and FIELDS UNBLEMISH; Radiance Foundation Broad Spectrum SPF 20 - Bare JAFRA; Radiance Foundation Broad Spectrum SPF 20 - Bronze JAFRA; Radiance Foundation Broad Spectrum SPF 20 - Fair JAFRA; Radiance Foundation Broad Spectrum SPF 20 - Honey JAFRA; Radiance Foundation Broad Spectrum SPF 20 - Natural JAFRA; Radiance Foundation Broad Spectrum SPF 20 - Nude JAFRA; Radiance Foundation Broad Spectrum SPF 20 - Spicy JAFRA; Radiance Foundation Broad Spectrum SPF 20 - Tawny JAFRA; Radical Skincare Skin Perfecting Screen SPF 30; Rainforest of the Sea Water Foundation Broad Spectrum SPF 15 Sunscreen deep; Rainforest of the Sea Water Foundation Broad Spectrum SPF 15 Sunscreen deep honey; Rainforest of the Sea Water Foundation Broad Spectrum SPF 15 Sunscreen deep sand; Rainforest of the Sea Water Foundation Broad Spectrum SPF 15 Sunscreen fair; Rainforest of the Sea Water Foundation Broad Spectrum SPF 15 Sunscreen fair beige; Rainforest of the Sea Water Foundation Broad Spectrum SPF 15 Sunscreen fair neutral; Rainforest of the Sea Water Foundation Broad Spectrum SPF 15 Sunscreen fair-light neutral; Rainforest of the Sea Water Foundation Broad Spectrum SPF 15 Sunscreen fair-light sand; Rainforest of the Sea Water Foundation Broad Spectrum SPF 15 Sunscreen light; Rainforest of the Sea Water Foundation Broad Spectrum SPF 15 Sunscreen light honey; Rainforest of the Sea Water Foundation Broad Spectrum SPF 15 Sunscreen light neutral; Rainforest of the Sea Water Foundation Broad Spectrum SPF 15 Sunscreen light sand; Rainforest of the Sea Water Foundation Broad Spectrum SPF 15 Sunscreen light-medium; Rainforest of the Sea Water Foundation Broad Spectrum SPF 15 Sunscreen light-medium beige; Rainforest of the Sea Water Foundation Broad Spectrum SPF 15 Sunscreen light-medium honey; Rainforest of the Sea Water Foundation Broad Spectrum SPF 15 Sunscreen light-medium neutral; Rainforest of the Sea Water Foundation Broad Spectrum SPF 15 Sunscreen light-medium sand; Rainforest of the Sea Water Foundation Broad Spectrum SPF 15 Sunscreen mahogany; Rainforest of the Sea Water Foundation Broad Spectrum SPF 15 Sunscreen medium; Rainforest of the Sea Water Foundation Broad Spectrum SPF 15 Sunscreen medium honey; Rainforest of the Sea Water Foundation Broad Spectrum SPF 15 Sunscreen medium neutral; Rainforest of the Sea Water Foundation Broad Spectrum SPF 15 Sunscreen medium sand; Rainforest of the Sea Water Foundation Broad Spectrum SPF 15 Sunscreen medium-tan sand; Rainforest of the Sea Water Foundation Broad Spectrum SPF 15 Sunscreen porcelain; Rainforest of the Sea Water Foundation Broad Spectrum SPF 15 Sunscreen rich sand; Rainforest of the Sea Water Foundation Broad Spectrum SPF 15 Sunscreen tan; Rainforest of the Sea Water Foundation Broad Spectrum SPF 15 Sunscreen tan sand; Ramosu The Star Mild Sunscreen; Rapid Repair Balm; Rash Relief; Rash Relief Antibacterial; Rash Relief Antifungal; Rash Relief Silver; Rash Repair Balm; Rash Stuff; Raw Elements Eco 30 Broad Spectrum SPF 30; Raw Elements Eco Formula 30 Broad Spectrum SPF 30; Raw Elements Facial Moisturizer Tint Formula 30 SPF 30 Broad Spectrum; Raw Elements Lip Rescue 30 Broad Spectrum SPF 30; Raw Elements Tint 30 Broad Spectrum SPF 30; Re20 Advanced Wrinkle Control BB Cream Broad Spectrum SPF 50; Re20 Light Wrinkle BB Cream Broad Spectrum SPF 50; Re20 Light Wrinkle BB Cream SPF 50; Re20 Ultra Sun Defense Special Set Broad Spectrum SPF 44; Re20 Ultra Sun Defense Special Set SPF 44; Re9 Advanced Restorative Day CRème With SPF 20; Re9 Advanced for Men Facial Moisturizer With SPF 20; Re9 Advanced for Men Travel Set; ReNK Velvet in pact No.21; Ready Foundation Dark; Ready Foundation Deepest Deep; Ready Foundation Fair; Ready Foundation Fairly Light; Ready Foundation Fairly Medium; Ready Foundation Golden Dark; Ready Foundation Golden Deep; Ready Foundation Golden Fair; Ready Foundation Golden Medium; Ready Foundation Golden Tan; Ready Foundation Light; Ready Foundation Medium; Ready Foundation Medium Beige; Ready Foundation Medium Dark; Ready Foundation Medium Deep; Ready Foundation Medium Tan; Ready Foundation Tan; Ready Foundation Warm Dark; Ready Foundation Warm Deep; Ready Foundation Warm Tan; Red Current Protective Moisturizer SPF 30; Red Ginseng Fermented Essence Bb Spf50plus Pa Plus Plus Plus; Red Ginseng Fermented Sun Spf50plus Pa Plus Plus Plus; Red Orange Sun Pact SPF 50 Plus Pa Plus Plus Plus; Red Orange Sun SPF 45 Pa Plus Plus Plus; Red Stick; Redness Relief Primer SPF20; Redness Relief SPF 20; Redness Solutions Makeup SPF 15 With Probiotic Technology; Rejuvaderm Medispa sunscreen; Rejuvity moisturizing day cream BROAD SPECTRUM SPF 15 SUNSCREEN; ReliaMed; Reliamed; Reman Homme Sun Protection; Remedy Essentials; Remedy Phytoplex Calazime Protectant; Remedy Phytoplex Z-Guard; Remedy Zinc Skin Protectant; Renew Periprotect; Renewal Daily Moisturizer Sensitive Skin; Renewal Firming Day Broad Spectrum SPF 30; Renove Royal Perfect Color Control Cushion SPF 37 / PA; Reorom Multi Defense Daily Sun Block; Repairwear Anti -aging Makeup SPF 15; Repara; Repaskids Facial / Body Broad Spectrum SPF30; Repaskids Facial / Body Broad Spectrum SPF50; Replenishing Sunscreen SPF 36; Resist Ultimate Hand Cream Broad Spectrum SPF 30; Resist Wrinkle Defense SPF 30 Paulas Choice; Reverse It Kit; Revitalizing C I2pl Stemcell Bb; Revlon Age Defying 3x Concealer; Revlon Age Defying All Day Lifting Foundation SPF 20 (9 Shades); Revlon Age Defying Light Make Up SPF 30; Revlon Age Defying Makeup & Concealer Compact SPF 20; Revlon Age Defying Moisturizing Concealer; Revlon Colorstay Active Light Makeup SPF 25; Revlon Colorstay Liquid Makeup for Normal to Dry Skin; Revlon Colorstay Liquid Makeup for Oily to Combination Skin; Revlon Colorstay Stay Natural Makeup SPF 12 (ethnic Shades-toast, Caramel, Cappucino); Revlon Colorstay Stay Natural Makeup SPF 15 ( Shades- Ivory, Buff, Nude, Sand Beige, Natural Beige, Medium Beige, Honey Beige, True Beige, Natural Tan); Revlon New Complexion Even Out Makeup; Revlon Photoready Airbrush Effect Makeup; Revlon Photoready Concealer; Revlon Photoready Insta-fix Makeup; Revlon Skinlights Diffusing Tint SPF 15; Revlon Skinlights Diffusing Tint SPF 15 (shade - Caramel); Revlon Skinlights Illusion Wand SPF 12 (luminous Touch, Light Touch, Medium Touch); Rides & éclat CRème Resplendissante Jour Fps 20; Rite Aid Calamine; Rite Aid Diaper Rash; Rite Aid RENEWAL baby sunscreen SPF 60; Rite Aid Renewal Sunscreen; Rite Aid Zinc SPF 50; Roc Minesol SPF 40; Roccos Old School Healing Balm; Rodan & Fields Proactiv Solution:  Oil Free Moisture With SPF 15; Rodan Fields UNBLEMISH Regimen for Acne, Blemishes and Breakouts; Roris Shiny Cc Spf37 Pa Plus Plus Plus; Rosaclear Skin Balancing Sun Protection Broad Spectrum SPF 30 Suncreen; Rosaclear Skin Balancing Sun Protection SPF 30 Suncreen; Rosehip and Lemongrass Lip SPF 15; Rough Dry; Royal and Ancient Suncreen; Ruby Cell 4u Sun; Rugby Zinc Oxide; Rv Paque - Ont; Rv Paque Ont; S4 Sunscreen Stick SPF30; SCREENSES Tinted facial make-up cream; SEPHORA Bronze Perfect CC sunscreen broad spectrum SPF 20; SEPHORA Skin Perfect CC Sunscreen Broad Spectrum SPF 20 DARK; SEPHORA Skin Perfect CC Sunscreen Broad Spectrum SPF 20 DEEP; SEPHORA Skin Perfect CC Sunscreen Broad Spectrum SPF 20 FAIR; SEPHORA Skin Perfect CC Sunscreen Broad Spectrum SPF 20 LIGHT; SEPHORA Skin Perfect CC Sunscreen Broad Spectrum SPF 20 MEDIUM; SEPHORA Skin Perfect CC Sunscreen Broad Spectrum SPF 20 MEDIUM-TAN; SEPHORA Skin Perfect CC Sunscreen Broad Spectrum SPF 20 TAN; SFL Sunscreen - SOL Defense SPF 30; SHISEIDO URBAN ENVIRONMENT Oil-FREE UV PROTECTOR; SILKEN pore perfecting sunscreen broad spectrum SPF 35; SIROT 24-Hour Hand Care Transformative Glass Technology Age-Fighting Protection Day and Night; SIROT Essential Day Transformative Glass Technology Anti-Aging Sunscreen Broad Spectrum SPF 20; SIROT The Complete Beauty Experience Transformative Glass Technology The First Steps to Younger Looking Skin; SKIN 79 Super Plus Beblesh Balm SPF25 PA (40g); SKIN 79 Super Plus Beblesh Balm Triple Functions SPF25 PA (40g); SKIN 79 The Prestige Beblesh Balm (40g); SKIN 79 The Prestige Beblesh Balm (5g); SKIN79 Super Plus Beblesh Balm Triple Functions SPF25 PA (5g); SKINFOOD ALOE SUN BB 02 Natural Skin; SOLAR SENSE CLEAR ZINC SUNSCREEN BROAD SPECTRUM SPF 50 Plus; SOLAR SENSE CLEAR ZINC SUNSCREEN Baby Tear Free FACE AND BODY BROAD SPECTRUM SPF 50; SOLAR SENSE CLEAR ZINC SUNSCREEN Baby Tear Free FACE and BODY BROAD SPECTRUM SPF 50 PLUS; SOLAR SENSE CLEAR ZINC SUNSCREEN FACE and BODY BROAD SPECTRUM SPF 50; SOLAR SENSE CLEAR ZINC SUNSCREEN FACE and BODY BROAD SPECTRUM SPF 70; SOLAR SENSE CLEAR ZINC SUNSCREEN FACE and BODY SPORT BROAD SPECTRUM SPF 50 Plus; SOLAR SENSE CLEAR ZINC SUNSCREEN FACE and LIPS BROAD SPECTRUM SPF 50; SOLAR SENSE CLEAR ZINC SUNSCREEN FACE and LIPS BROAD SPECTRUM SPF 50 Plus; SOLAR SENSE CLEAR ZINC SUNSCREEN FACE and LIPS BROAD SPECTRUM SPF 70; SOLAR SENSE CLEAR ZINC SUNSCREEN SPORT BROAD SPECTRUM SPF 50 Plus; SOOTHE Regimen for Sensitive Skin; SPF 15 Brightening Moisturizer; SPF 15 Lotion; SPF 15 Lotion W/bronzer; SPF 15 Spray Gel W/bronzer; SPF 16 Age-defying Treatment Serum; SPF 16 Brightening; SPF 20 Loose Mineral Foundation; SPF 30 Broad Spectrum Suncreen Epione; SPF 30 Face; SPF 30 Fps; SPF 30 Mineral Sunscreen Face Neck; SPF 30 Moisturizing Defense Day Cream; SPF 30 Moisturizing Defense Eye Cream; SPF 30 Signature Premium Endurance Sunscreen; SPF 30 Sunscreen Stick; SPF 50 Broad Spectrum Ultrathon; SPF 50 Signature Premium Endurance Sunscreen; SPF 60 Baby Sunscreen Stick; SPF 8 Lotion; SPF Fps 15 Mentha Lip Balm Stick; SPF Rx - Mineral Sunscreen SPF 30; SPF Rx - Mineral Sunscreen SPF 40; SPF Rx - Mineral Sunscreen SPF 50; SPF Rx - Ultra-Clear Daily Skin Hydrator SPF 50; SPF-30 Bb; SPF-30 SPORT moisturizer; SPF-40 facial moisturizer; SPF-45 Sunscreen; SRB 3 Lighting White BB; SUBLIME DEFENSE Anti-Aging Blurring Moisturizer SPF 30; SUN Solar Defense Hydrating; SUN Solar Defense Oil-free SPF 30; SUN Solar Defense Organic SPF30; SUN Tinted Solar Defense Organic SPF 30; SUPER BB All-in-1 Beauty Balm Powder SPF 30; SUPER ORIGIN COLLAGEN WATERPROOF BB 45g; SUPER SOLAIRE sun sensitive areas tinted SPF 30; SUPER STICK SOLAIRE sun sensitive areas colorless SPF 30; Sable Long Wear Makeup Broad Spectrum SPF 20; Sable Radiance Foundation Broad Spectrum SPF 20 - Tawny JAFRA; Sachet Active Argan 02.3 Plasma Pro 50 Featherweight Day Broad Spectrum SPF 20 With Proprietary A.P.I. and Activated Argan Complex; Safe Harbor - Natural - Sensitive SPF50 Broad Spectrum; Safe Harbor - Natural Anti-Aging Sunscreen Broad Spectrum SPF30 Sunscreen Sensitive Skin; Safe Harbor - Natural Sunscreen - Baby and Kids SPF50 Broad Spectrum Sunscreen; Safe Harbor - Natural Sunscreen Face and Neck Cream Broad Spectrum SPF40 Sunscreen; Safe Harbor Natural Suncare Broad Spectrum; Safe Harbor Natural Suncare Natural Face and Neck Broad Spectrum; Safe Harbor Natural Suncare Natural Sheer Mineral; Safe Sea; Safe Sea SPF 50; Safe Sea SPF 50 KIDS; Safe Sea SPF 60; Safe Sea Sunscreen With Jellyfish Sting Protective SPF 15; Safe Sea Sunscreen With Jellyfish Sting Protective SPF 50; Sage And Zinc Facial Hydrating SPF 15; Salonpas Medicated Plaster; Scar Zone Scar Cream; Scar Zone Topical Scar Diminishing; ScarScreen; Scott-Vincent Borba Anti-Fatige 8 Hour Mineral Foundation with Broad Spectrum SPF 29; Screen; Se-Care Chewable; Se-Natal 19; Se-Natal 19 Chewable; Se-Natal One; Sea & Ski SPF 50 Advanced Sunblock; Sea & Ski SPF 50 Baby Sunblock; Sea & Ski SPF 50 Faces Sunblock; Sea & Ski SPF 50 Kids Sunblock; Sea & Ski SPF 50 Platinum Sunscreen; Sea & Ski Sport SPF 50; Secret Key Thanakha Mild SunCream SPF47 PA PLUS PLUS PLUS; Secura EPC Skin Care Starter Kit; Secura Extra Protective; Secura Extra Protective Cream; Secura Protective; Secura Two Step Kit; Selan Plus Zinc; Selan Plus Zinc Oxide; Select Brand Calaclear; Select Brand Calamine; Select SPF 15 Moistureblend Foundation; Sensi Care Clear Zinc; Sensi Care Protective Barrier; Sensitive Day Cream With Uv-protection; Sente Daily Repair Complex SPF 30; Serena Williams Lip Balmer SPF 15; Serum Crema Broad Spectrum SPF20 Sunscreen; Sesderma SESPREVEX Calming and protecting foam; Sheer Broad Spectrum SPF 30; Sheer Broad Spectrum SPF 45; Sheer Cover Mineral Foundation SPF-15 Almond; Sheer Cover Mineral Foundation SPF-15 Bisque; Sheer Cover Mineral Foundation SPF-15 Buff; Sheer Cover Mineral Foundation SPF-15 Frost; Sheer Cover Mineral Foundation SPF-15 Golden; Sheer Cover Mineral Foundation SPF-15 Latte; Sheer Cover Mineral Foundation SPF-15 Mocha; Sheer Cover Mineral Foundation SPF-15 Nude; Sheer Cover Pressed Mineral Foundation SPF 12; Sheer Cover Shade Adapting Mineral Foundation SPF-15 Dark; Sheer Cover Shade Adapting Mineral Foundation SPF-15 Light; Sheer Cover Shade Adapting Mineral Foundation SPF-15 Medium; Sheer Cover Shade Adapting Mineral Foundation SPF-15 Tan; Sheer Finish Tinted Moisturizer Dark SPF 15; Sheer Finish Tinted Moisturizer Fair SPF 15; Sheer Finish Tinted Moisturizer Light SPF 15; Sheer Finish Tinted Moisturizer Medium SPF 15; Sheer Finish Tinted Moisturizer Medium-Beige SPF 15; Sheer Finish Tinted Moisturizer Warm Beige SPF 15; Sheer Focus Tinted Moisturizer; Sheer Focus Tinted Moisturizer With Uva/uvb SPF 15; Sheer Moisture; Sheer Tint Moisture - Dark; Sheer Tint Moisture - Light; Sheer Tint Moisture - Medium; Sheer Tint Moisturizer SPF 15 ASAP Skin Products; Sheer Tint SPF20 - Dark; Sheer Tint SPF20 - Light; Sheer Tint SPF20 - Medium; SheerZinc SPF 30 Tinted - Nude; SheerZinc SPF 30 Tinted - SunKissed; SheerZinc SPF 30 Tinted - Tan; Shine Control Mattifying Makeup SPF 15 (medium Beige, Natural Beige and Buff); Shine Control Mattifying Makeup SPF 15 (natural Tan and Toast); Shine Control Mattifying SPF 15 (caramel); Shiseido Extra Smooth Sun Protection Cream SPF 38; Shiseido Extra Smooth Sun Protection Lotion SPF 34; Shiseido Extra Smooth Sun Protection N; Shiseido Future Lx Universal Defense; Shiseido Sun Protection Eye; Shiseido Sun Protection Eye Cream SPF 32; Shiseido Suncare Extra Smooth; Shiseido Suncare Ultimate; Shiseido Ultimate Sun Protection; Shiseido Ultimate Sun Protection Plus; Shiseido Ultimate Sun Protection S; Shiseido Ultra Sun Block Lotion SPF 50; Shiseido Ultra Sun Protection Cream SPF 50; Shiseido Ultra Sun Protection Lotion SPF 50; Shiseido Urban Environment Oil-free Uv Protector; Shiseido Urban Environment Uv Protection; ShopKo Absolute Daily Moisturizer SPF15 Sensitive Skin; Shopko Diaper Rash Maximum Strength; Shower To Shower Deod. Body Pwr 5%; Shu Uemura Face Architect Glow Enhancing Foundation SPF 26; Siero Co Aqua Cushion Foundation 13 Light Beige; Siero Co Aqua Cushion Foundation 21 Natural Beige; Siero Co Aqua Cushion Foundation 23 Rosy Beige; Siero Double Co Aqua Cc Cushion 13 Light Beige; Siero Double Co Aqua Cc Cushion 21 Natural Beige; Siero Double Co Aqua Cc Cushion 23 Rosy Beige; Siero Tyrian Red Cushion 13 Light Beige; Siero Tyrian Red Cushion 21 Natural Beige; Siero Tyrian Red Cushion 23 Rosy Beige; Signature Face/Clear High Performance Sunscreen Broad Spectrum SPF 30; Silagen; Simply b, MD Daily Clear; Sirot Daytime Hand Perfection Transformative Glass Technology Moisturizing Sunscreen Broad Spectrum SPF 20; Sirot Hand and Body Trio Transformative glass Technology Complete Age Resistance Day and Night; Sirot complete Hand Care Collection Transformative Glass Technology Hydrate Restore Protect; Sk1n Natural Sunscreen SPF 20; Sk1n Natural Sunscreen SPF 40; Skin Balancing Face Primer SPF 20 Sunscreen; Skin Brightening Face Primer SPF 20 Sunscreen; Skin Brightening SPF 50 Pa; Skin Brightening Spf50; Skin Bronzing Face Primer SPF 20 Sunscreen; Skin Calming Face Primer SPF 20 Sunscreen; Skin Crave All Natural SPF30; Skin Mattifying Face Primer SPF 20 Sunscreen; Skin Soothing Mineral Sunscreen Broad Spectrum SPF 40 Supergoop; Skin Tint FX; Skin-E-dip Ont; Skin-Perfecting Mineral Beauty Balm Broad Spectrum SPF 20; SkinCeuticals Daily Sun Defense Broad Spectrum SPF 20 Sunscreen; SkinCeuticals Physical Eye UV Defense Sunscreen; SkinCeuticals Physical Fusion UV Defense Broad Spectrum SPF 50 Sunscreen; SkinCeuticals Physical UV Defense Broad Spectrum SPF 30 Sunscreen; SkinCeuticals Sheer Physical UV Defense Broad Spectrum SPF 30 Sunscreen; SkinCeuticals Sheer Physical UV Defense Broad Spectrum SPF 50 Sunscreen; SkinCeuticals Ultimate UV Defense Broad Spectrum SPF 30 Sunscreen; SkinMedica Daily Physical Defense SPF 30 Sunscreen; SkinMedica Environmental Defense Sunscreen SPF 50; SkinMedica TNS Ultimate Daily Moisturizer Sunscreen SPF 20; SkinMineralZ Viniferamine; SkinPerfect Primer SPF 30; SkinTx Daily Defense SPF 45; SkinTx UV Pro Broad Spectrum SPF30; SkinTx UV Pro Broad Spectrum SPF45; Skinceuticals Daily Sun Defense SPF 20; Skinceuticals Sport Uv Defense SPF 45; Skinceuticals Uv Defense SPF 30; Skinfood Aloe Sun Bb; Skinfood Aloe Watery Sun Waterproof; Skinfood Miracle Food 10 Solu Tion Sun Essence; Skinfood Vita Water Drop Cc; Skinfuse Shield SPF 30; Skintint Fx; Skylark; Slim Fit Moist SPF 50; Slim Fit SPF 50 Pa; Smart Stuff Natural Lip Treatment SPF15 4g; Smart Stuff SPF30 4oz; Smart Sunblock Puff; Smashbox Camera Ready Bb Cream Eyes SPF 15; Smashbox Camera Ready Bb Water SPF 30; Snail Bb 01; Snail Bb 02; Snail Essential EX Wrinkle Sun; Snail Repair Blemish Balm; Snail Solu Tion Bb 02; Snail Therapy 50 Bb Spf30 Pa Plus Plus No1; Snail Therapy 50 Bb Spf30 Pa Plus Plus No2; Snail Therapy Pact 21 Spf25 Pa Plus Plus; Snail Therapy Pact 23 Spf25 Pa Plus Plus; SnowBalm Adult; SnowBalm Baby; SnowSkin Face Sunscreen; SnowSkin Sunscreen; SnowSkin Sunscreen Zinc; Softlips Pure Lip Butter Vanilla Berry; Sol Protect; SolScents Clear Face Flower Blast Broad Spectrum spf 50; Solar Defender SPF 30; Solar Defense Non Tinted; Solar Defense Tinted; Solar Protection Formula LipTect Lip Balm/Sunscreen; Solar Protection Formula SPF 58 Sunscreen; Solar Protection Formula SPF 60 Tinted Concealer - (Beige) Sunscreen; Solar Protection Formula SPF 60 Tinted Concealer - (Blush) Sunscreen; Solar Protection Formula SPF 60 Tinted Concealer - (Honey) Sunscreen; Solar Protection Formula SPF 65 Sunscreen; Solar Protection Formula TiZO Body Sunscreen; Solar Protection Formula TiZO SPF 35 Sunscreen; Solar Protection Formula TiZO SheerFoam Sunscreen; Solar Protection Formula TiZO2 Light Skin Formula Sunscreen; Solar Protection Formula TiZO3 Sunscreen; Solar Sense Clear Sun Protection; Solar Sense Clear Zinc Body SPF 50; Solar Sense Clear Zinc Sport Body SPF 50; Solar Sense Clear Zinc Sunscreen Value Pack 50 Plus; Solar Sense Face & Lip Protection - SPF-30; Solar Sense Face & Lip Protection W/SPF 45; Solar Sense Face Sense - Spf30; Solar Sense Kids Protection - SPF-30; Solar Sense Outdoor Sports Protection - SPF-30; Solar Sense SPF 45 for Face, Nose and Lips; Solar Sense Sun Damage Restoration Body SPF 15; Solar Sense Zany Zinc SPF 50 - Blue; Solar Sense Zany Zinc SPF 50 - Green; Solar Sense Zany Zinc SPF 50 - Pink; Solar Sense Zany Zinc SPF 50 - White; Solar Sense Zany Zinc SPF 50 - Yellow; Solbar; Solbar Shield SPF40; Solbar Zinc SPF38; Soleil Broad Spectrum SPF-15; Soleil Broad Spectrum SPF-30; Soleil Broad Spectrum SPF-50; Soleil Toujours Perpetual Radiance Broad Spectrum SPF 20; Soleo Organics Sunscreen; Sonatural Pow Der4room Cover Fixing Cushion 21.5; Sonatural Pow Der4room Cover Fixing Cushion 23.5; Sonatural Pow Der4room Fixing It Full Cover Neutral Beige; Sonatural Pow Der4room Fixing It Full Cover Vanilla Beige; Sooryehan Bichaek Jadan Sun; Sooryehan Jadan Sun Mild; Soothe and Cool Protect; Source Vital apothecary sunshade SPF 30; Spai-sons Fine Talcum; Sparkle Screen Broad Spectrum 30 Glittering Gold Kiwi-Pear Scented; Sport Natural Mineral Sunscreen Broad Spectrum SPF 30; Steblanc Water Cc Pact 21 Light Beige; Steblanc Water Cc Pact 23 Natural Beige; Stila Color Correcting Broad Spectrum SPF 20 (All Shades); Stila Petal Infusions Skin Visor SPF 50 Sunscreen; Stila Sheer color tinted moisturizer BS SPF20 (All Shades); Stila Stay All Day 10-in-1 HD Beauty Balm Broad Spectrum SPF 30; Stila Stay All Day 10-in-1 HD Illuminating Beauty Balm Broad Spectrum SPF 30; Stila illuminating tinted moisturizer broad spectrum SPF 20 (All Shades); Stop The Clock Broad Spectrum SPF 50; Stout Daily SPF for Men; Strovite One Caplets; Studio 35 External Analgesic Medicated Body; Studio Moisture Fix SPF 15; Sudden Change Intensive Restoration Daily Moisturizer SPF 15; Suisse DS Systeme Barrier Shield SPF 15; Sulwhasoo Age-veil Sun Cream SPF 30; Sulwhasoo Age-veil UV protection; Sulwhasoo Age-veil Uv Protection Cream; Sulwhasoo EVENFAIR SMOOTHING FOUNDATION SPF25 NO.2 MEDIUM BEIGE; Sulwhasoo EVENFAIR SMOOTHING FOUNDATION SPF25 NO.3 MEDIUM OCHER; Sulwhasoo Evenfair Perfecting Cushion No.21; Sulwhasoo Evenfair Perfecting Cushion No.23; Sulwhasoo Evenfair Perfecting Cushion No.25; Sulwhasoo Lumitouch Base; Sulwhasoo Lumitouch Base Makeup SPF15, PA plus; Sulwhasoo Lumitouch Base SPF 15 No. 60 Light Green; Sulwhasoo Lumitouch Base SPF 15 No.40 Light Violet; Sulwhasoo Lumitouch Compact No.21 Natural Beige; Sulwhasoo Lumitouch Compact No.23 True Beige; Sulwhasoo Lumitouch Foundation; Sulwhasoo Lumitouch Foundation No. 21; Sulwhasoo Lumitouch Foundation No. 23; Sulwhasoo Lumitouch Foundation No. 25; Sulwhasoo Lumitouch Foundation No.21 Natural Beige; Sulwhasoo Lumitouch Foundation SPF 25 No 23. True Beige; Sulwhasoo Lumitouch Foundation SPF 25 No 25. Dark Beige; Sulwhasoo Lumitouch Foundation SPF 25 No.21 Natural Beige; Sulwhasoo Lumitouch Foundation SPF15, PA plus; Sulwhasoo Lumitouch Foundation SPF26, PA plus plus; Sulwhasoo Lumitouch Multi-Base No.1; Sulwhasoo Lumitouch Multi-Base No.2; Sulwhasoo Lumitouch Twincake SPF25, PA plus plus; Sulwhasoo PERFECTING CUSHION NO.11 PALE PINK; Sulwhasoo PERFECTING CUSHION NO.13 LIGHT PINK; Sulwhasoo PERFECTING CUSHION NO.21 MEDIUM PINK; Sulwhasoo PERFECTING CUSHION NO.23 MEDIUM BEIGE; Sulwhasoo PERFECTING CUSHION NO.25 DEEP BEIGE; Sulwhasoo PERFECTING CUSHION NO.33 DARK BEIGE; Sulwhasoo PERPECTING CUSHION BRIGHTENING NO.11 PALE PINK; Sulwhasoo PERPECTING CUSHION BRIGHTENING NO.13 LIGHT PINK; Sulwhasoo PERPECTING CUSHION BRIGHTENING NO.17 LIGHT BEIGE; Sulwhasoo PERPECTING CUSHION BRIGHTENING NO.21 MEDIUM PINK; Sulwhasoo PERPECTING CUSHION BRIGHTENING NO.23 MEDIUM BEIGE; Sulwhasoo PERPECTING CUSHION BRIGHTENING NO.25 DEEP BEIGE; Sulwhasoo PERPECTING CUSHION BRIGHTENING NO.33 DARK BEIGE; Sulwhasoo Perfecting Cushion; Sulwhasoo Perfecting Cushion Intense No.11; Sulwhasoo Perfecting Cushion Intense No.13; Sulwhasoo Perfecting Cushion Intense No.17; Sulwhasoo Perfecting Cushion Intense No.21; Sulwhasoo Perfecting Cushion Intense No.23; Sulwhasoo Perfecting Cushion Intense No.25; Sulwhasoo Perfecting Cushion Intense No.33; Sulwhasoo Perfecting Cushion No.21; Sulwhasoo Perfecting Cushion No.23; Sulwhasoo Perfecting Cushion No.25; Sulwhasoo SNOWISE BRIGHTENING SERUM BB; Sulwhasoo Snowise Brightening Bb Base No.1; Sulwhasoo Snowise Brightening Bb Base No.2; Sulwhasoo Snowise Foundation; SulwhasooSNOWISE BRIGHTENING SERUM BB; Summer Bisque Foundation SPF 20; Sun Armor SPF 50; Sun Barrier UV Milk Broad Spectrum SPF 50; Sun Barrier UV Protector Broad Spectrum SPF 50; Sun Barrier UV Shaking Broad Spectrum SPF 50; Sun Bum Clear Zinc SPF50 Sunscreen; Sun Care For Face; Sun Care for Body; Sun Defense UVscreen SPF 48; Sun Dmc SPF-30; Sun Lotion SPF 8; Sun Natural Sunscreen; Sun Protect Beblesh Pact SPF30 PA 2Plus; Sun Protection SPF 45; Sun Savvy Solar Shield SPF 20; Sun Shades; Sun Shades Mineral Plus Sunscreen; Sun Shades Mineral Plus Sunscreen with Zinc Oxide; Sun Shield Broad Spectrum SPF 50 Matte Sunscreen; Sun Shield Clear SPF 30 Broad Spectrum Mineral Continuous; Sun Shield Clear SPF 50 Broad Spectrum; Sun Shield Day Lotion SPF 15; Sun Stick SPF 24; Sun Total Protector 30 broad spectrum SPF 30 daily protection; Sun Total Protector Color 30 Dark Tint; Sun Total Protector Color 30 Light Tint; SunBum SPF 30; SunBum SPF 50; SunClear; Sunbar SPF 48; Sunblock for Body SPF 15; Sunblock for Face SPF 30; Sunblocz; Sunblocz Baby and Kids; Sunbrellas Goodbye Bugs Block SPF 26; Sunbrellas Mineral Sunblock SPF 30; Sunbrero SPF 30 Lotion; Suncare By Vaseline Sport Lotion SPF 15; Sunforgettable Brush On Mineral Sunscreen SPF 50; Sunforgettable Brush-On Sunscreen SPF 30; Sunforgettable Brush-On Sunscreen SPF 50; Sunforgettable Eyescreen SPF 30 Sunscreen; Sunforgettable Face Primer SPF 30 Sunscreen; Sunforgettable Lip Shine SPF 35 Sunscreen; Sunforgettable Loose Mineral Sunscreen SPF 30; Sunforgettable Tint du Soleil Foundation SPF 30 Sunscreen; Sunglitter Princess; Sunjammer SPF 15; Sunkiss SPF15; Sunmark Calamine; Sunmark Caldiphen; Sunmark Caldyphen Clear; Sunmark Phenolated Calamine; Sunright 15 - Lot; Sunright 23 Face & Hands - Lot; Sunright 28 - Lot; Sunscreen; Sunscreen Baby SPF30 Plus Broad Spectrum; Sunscreen Beige Broad Spectrum Spf50+; Sunscreen Broad Spectrum SPF 50 Vi Aesthetics; Sunscreen Broad Spectrum SPF 50 Vitality Institute; Sunscreen Broad Spectrum Spf50+; Sunscreen Day Broad Spectrum SPF 40 Supergoop; Sunscreen Day SPF 50 Supergoop; Sunscreen SPF 15; Sunscreen SPF 25; Sunscreen SPF 28; Sunscreen SPF 30; Sunscreen SPF 45; Sunscreen SPF 50; Sunscreen SPF 50 CeraVe; Sunscreen SPF30 Plus Broad Spectrum; Sunscreen Sport Lip SPF30 Plus Broad Spectrum; Sunscreen Sport SPF30 Plus Broad Spectrum; Sunscreen Stick; Sunscreen Stick Broad Spectrum SPF 30 Sunscreen baby Bum; Sunscreen Stick With Moisturizing Aloe Vera; Sunscreen with UV pearls Broad Spectrm SPF 20; Sunshield SPF-30; Sunshine on the Go Natural SPF 30plus Sunscreen; Sunstation All-Natural SPF 30 Sunscreen; Sunstick Broad Spectrum SPF 30 Supergoop; Sunstop 30 +; Suntegrity Lip CPR Lipstick Fuchsia Flare SPF30; Suntegrity Lip CPR Lipstick Moonlight Merlot SPF30; Suntegrity Lip CPR Lipstick Plum Eclipse SPF30; Suntegrity Lip CPR Lipstick Sable Shade SPF30; Suntegrity Lip CPR Lipstick Stargazer Bloom SPF30; Suntegrity Lip CPR Lipstick Sunburst Pink SPF30; Suntegrity Lip CPR Lipstick Sunny Blush SPF30; Suntegrity Lip CPR Lipstick Sunrise Peach SPF30; Suntegrity Lip CPR Lipstick Sunset Coral SPF30; Sunzee Broad Spectrum SPF 40 Sunscreen; Super BB 10-in-1 Beauty Balm Concealer SPF 30; Super BB All in One Beauty Balm Bronzer and Blush; Super BB All in One Beauty Balm Stick; Super BB All in One Cheek and Lip; Super BB All-In-1; Super BB All-in-One Compact Cream SPF 30; Super BB InstaReady Beauty Balm BB Cream; Super BB InstaReady Contour Trio BB Stick; Super Bb 10-IN-1 Beauty Balm Cream SPF 30; Super CC Color Correction Care CC Compact Cream; Super CC Color Correction Care Instant Blurring Eye Cream; Super CC Color Correction Care Primer Stick SPF 30; Super CC Color-Corection Care All Over Blur Stick; Super CC Color-Correction Care All Over Blur CC Cream; Super CC Plus Concealer SPF 30; Super CC Plus Cream SPF 30; Super CC Plus Powder SPF 30; Super City Block Bb Cushion Compact Broad Spectrum SPF 50; Super City Block SPF 40 Oil Free Daily Face Protector; Super Light Touch Bb Pact Spf30 Pa Plus Plus; Super Light Touch Bb Spf30 Pa Plus Plus; Super Origin Cc Spf30 Pa Plus Plus Color Change; Super Origin Ceramide Bb; Super Origin Ceramide Bb Spf25 Pa Plus Plus; Super Origin Collagen Bb; Super Origin Collagen Bb Sand Beige; Super Origin Collagen Bb Spf25 Pa Plus Plus; Super Origin Collagen Waterproof Bb; Super Origin Collagen Waterproof Bb Spf46 Pa Plus Plus Plus; Super Origin Cotton Finish Foundation 21 Light Beige; Super Origin Cotton Finish Foundation 23 Natural Beige; Super Origin Cushion Complete Control 21 Moist and Bright Skin; Super Origin Cushion Complete Control 23 Moist and Natural Skin; Super Plus Beblesh Balm Triple Functions SPF25 PA 2Plus; Super Plus Beblesh Balm Triple Functions SPF50 Plus PA 3Plus (40g); Super Plus Perfect Bb Spf30 Pa Plus Plus Bright; Super Plus Perfect Bb Spf30 Pa Plus Plus Natural; Super Sensitive Diaper Rash; Super Sensitive Shield SPF 30; Super Sheer Sunscreen Lotion SPF 50; Super Sparkle Screen Broad Spectrum 30 Sunkissed Gold Glitter Tangerine Scented; Super Sparkle Screen Broad Spectrum 30 Sunkissed Pink Glitter Strawberry Scented; SuperPlus Beblesh Balm Gold SPF25 PA 2Plus; SuperPlus Beblesh Balm SPF25 PA 2Plus; SuperPlus Beblesh Balm Triple Functions SPF25 PA 2Plus; Superdefense Age Defense Broad Spectrum SPF 20; Supernatural Airbrushed Canvas Broad Spectrum SPF 15 Sunscreen Beige; Supernatural Airbrushed Canvas Broad Spectrum SPF 15 Sunscreen Bronze; Supernatural Airbrushed Canvas Broad Spectrum SPF 15 Sunscreen Extra Rich; Supernatural Airbrushed Canvas Broad Spectrum SPF 15 Sunscreen Fair; Supernatural Airbrushed Canvas Broad Spectrum SPF 15 Sunscreen Honey; Supernatural Airbrushed Canvas Broad Spectrum SPF 15 Sunscreen Light Bronze; Supernatural Airbrushed Canvas Broad Spectrum SPF 15 Sunscreen Medium Beige; Supernatural Airbrushed Canvas Broad Spectrum SPF 15 Sunscreen Natural Ivory; Supernatural Airbrushed Canvas Broad Spectrum SPF 15 Sunscreen Rich; Supernatural Airbrushed Canvas Broad Spectrum SPF 15 Sunscreen Rich Toffee; Supernatural Airbrushed Canvas Broad Spectrum SPF 15 Sunscreen Sand; Supernatural Superbeautiful Makeup SPF 15; Supreme Shield; Supreme Skinpia 10 Bb; Supreme Skinpia 10 Sun Block; Surfers Barrier; Surfers Skin Sunscreen; SurfersSkin Face Sunscreen; SurfersSkin Sunscreen Zinc; Susanne Kaufmann Suncare Face Broad Spectrum Protection Sunscreen SPF 30 Uvb Uva; Swimmers Itch Guard SPF 30; Swisstec Global Protect SPF 30; Systeme Anti-rides Bio Matifiant Jour Fps 15; TARTEGUARD 30 sunscreen Broad Spectrum SPF 30; TENA Protective Cream; THERA Calazinc Body Shield; TONYMOLY BCDation All Master; TONYMOLY Face Mix Skin Makeup Base 02 Mix Lavendar SPF20; TONYMOLY Fitting Foundation 23 SPF30 Natural Beige; TONYMOLY My Sunny Body and Family Sun Cream; TONYMOLY My Sunny Kids and Mom Sun Cream; TONYMOLY My Sunny Tok Tok Sun Powder; TONYMOLY My Sunny Touch Free Sun Block; TONYMOLY My Sunny Waterproof Sun Block; TONYMOLY Regencia Homme Multi BB Cream SPF43; TONYMOLY Timeless Carat Foun Cover 01 Skin Beige; TONYMOLY Timeless Carat Moisture Soft Powder Pact 21 Skin Beige; TONYMOLY Timeless Carat Moisture Soft Powder Pact 23 Natural Beige; TONYMOLY Timeless Ferment Snail BB Cream; TOTAL DEFENSE REPAIR BROAD SPECTRUM SPF 34 Sunscreen; TOTAL DEFENSE REPAIR BROAD SPECTRUM SPF 34 Sunscreen (Tinted); TOTAL DEFENSE REPAIR BROAD SPECTRUM SPF 50 Sunscreen; TS CC Cream Beige; TS CC Cream Natural Beige; Take Cover Anti-aging Foundation Deep; Take Cover Anti-aging Foundation Fair; Take Cover Anti-aging Foundation Light; Take Cover Anti-aging Foundation Medium; Take Cover Anti-aging Foundation Medium Deep; Take Cover Anti-aging Foundation Medium Rich; Tan Foundation SPF 15; Tarteguard 20 Tinted Moisturizer light; Tarteguard 20 Tinted Moisturizer light-medium; Tarteguard 20 Tinted Moisturizer medium; Tena; Tender Moments Baby Bottom Balm; Tenderwrap; Terrasport; The Cellin EOP B.B Cream; The Cellin SC BB Cream SPF 25 PA; The First Sun Spf50 Plus Pa Plus Plus Plus; The Flower Uv Intense Pact Spf50 Pa Nb21; The Flower Uv Intense Pact Spf50 Pa Nb23; The History Of Whoo Gongjinhyang Seol Whitening Sun; The Organic Pharmacy Cellular Protection Sunscreen SPF 30; The Organic Pharmacy Cellular Protection Sunscreen SPF 50; The Oriental Gold BB SPF25 PA 2Plus; The Oriental Gyeol Goun Two Way Pact; The Prestige BB SPF25 PA 2Plus; The Yeon Lotus Flower Bc Cushion Pact 01 Light Beige; The Yeon Lotus Flower Bc Cushion Pact 02 Natural Beige; The Yeon Style Y Y Glam Luminous Cc; The Yeon Style Y Y Glam Water Bomb Cc; TheFaceShop Jelly Pact 34200187; TheFaceShop Jelly Pact 34200188; TheradermSPF 43 SPF 43; Theraseptin; Thinkbaby Baby Sunscreen SPF 50; Thinksport Kids Sunscreen SPF 50; Thinksport Livestrong SPF 50; Thinksport Sunscreen SPF 50; Time Dynamics Time Protector Daily Defense SPF 15; Time Dynamics Travel Kit Jafra; Time Machine BB; Time Revolution White Cure Blanc Tone Up Sun Protector; Timewise Day Solution Sunscreen SPF 25; Tinted Clear Zinc Solar Protection SPF 30; Tinted Moisturizer Broad-Spectrum SPF 45; Tinted Moisturizer Matte Broad Spectrum SPF 45; Tinted Moisturizer SPF 20; Tinted Moisturizer SPF 30 SPF 30; Tinted Moisturizer SPF 45 Matte; Tinted Moisturizer SPF-20; Tinted Radiance Moisturizer Broad Spectrum SPF 32; Tinted Radiance Moisturizer Broad Spectrum SPF 32 Medium to Tan; Tinted SPF 45; Tinted Sunscreen Cream SPF 30 4-Deep Amber; Tinted Sunscreen SPF 30 1-Natural; Tinted Sunscreen SPF 30 2-Golden; Tiny Tillia; Tomato Day Broad Spectrum SPF 16 Sunscreen; Tomato Sun SPF 36 Pa Plus Plus; Tomato Wrinkle Sun Spf36 Pa Plus Plus; Toms Baby Diaper Fragrance Free; Toms Baby Sunscreen Fragrance Free Sunscreen; Tone Up White Sun; Tonymoly Bcdation 01; Tonymoly Bcdation 02; Tonymoly Intense Care Snail Bb; Tonymoly Luminous Goddess Aura Bb 02; Tonymoly Timeless Carat Foun Cover 02 Natural Beige; Too Cool For School DINO PLATZ CINEMA CITY (CC CHEEK); Too Cool For School DINO PLATZ CINEMA CITY (CC CONCEALER); Too Cool For School DINO PLATZ CINEMA CITY (CC Highlighter); Too Cool For School DINOPLATZ LOOSE and SILLY No. 1 Definition; Too Cool For School DINOPLATZ LOOSE and SILLY No. 2 Illusion; Too Faced Tinted Beauty Balm SPF-20; Total Active Dual BB SPF50 PLUS PA PLUS PLUS PLUS; Total Defense + Repair Broad Spectrum SPF 34 Sunscreen; Total Defense + Repair Broad Spectrum SPF 34 Sunscreen Tinted; Total Defense + Repair Broad Spectrum SPF 50+ Sunscreen; Total Protector 30; Total Protector Color 30 Medium Tint; Total Protrector 15; Total Sun Protection; Touchless Care ZINC OXIDE PROTECTANT; Tourmanium Bb Spf30 Pa Plus Plus; Trader Joe S Mineral Sunscreen; TriAdvance; Tricare Prenatal; Trinatal GT; Triple Care Cream 10%; Triple Medicated for Diaper Rash; Triple Protection Broad Spectrum Sunscreenspf 30 SPF 30; Tronolane; Tropical Sands SPF-30 Broad Spectrum Sunscreen; Tropical Sands SPF-30 Broad Spectrum Sunscreen (Coconut); Tropical Sands, SPF-50 Broad Spectrum Sunscreen; Tropical Solutions Facial Moisturizer SPF 15; Tropical Vanilla Body SPF 32; Tropical Vanilla Body Sunscreen Broad Spectrum SPF 32; Tropical Vanilla Sun Cream; Tropical Vanilla Sunscreen Broad Spectrum SPF 32; Tropicsurf Extreme Protection Spf30-ultra; Tropicsurf Extreme Protection Spf50; True Finish Powder Makeup SPF 15 Sunscreen; True Natural Baby 30 and Family; True Natural NEUTRAL 50; True Natural broad spectrum spf 50 all natural baby and sensitive skin sunscreen; True Natural broad spectrum spf 50 all natural sunscreen Limited Edition; True Natural broad spectrum spf 50 all natural vanilla-coconut sunscreen; True Natural broad sptectum spf 50 Unscented face and sensitive skin; Truecomfort Tm Lipcare SPF-25; Truffle EX Sun Spf50 Plus Pa Plus Plus Plus; Tucks Hemorrhoidal; UNBLEMISH Regimen for Acne, Blemishes and Breakouts Travel Size; UNNAPLAST with CALAMINE; UP and UP CREAMY DIAPER RASH; UP and UP DIAPER RASH; UV Capture Sebum Control Sun Cream; UV Capture Sun BB; UV Capture Water Zero Sunspray; UV Defense Fluid; UV Mineral Shield SPF30; UV SUNSET Body And Family Sun; UV SUNSET Waterproof Sun Block; Ulta Beauty Broad Spectrum SPF 30 Tinted Mineral Sunscreen; Ulta Beauty Tinted Moisturizer SPF-30; UltimateCare ONE NF; Ultra Shade Sunscreen SPF 30 Taheri MD; Ultra Sun Protection Cream; Ultra Sun Protection Lotion; Ultra UV Defense SPF 30; Ultrasol Nature Baby Sunscreen; United Spirit of America Broad Spectrum SPF 50 Sunscreen; Unnaplast; Urban Decay Naked Skin Beauty Balm SPF 20; Urban Decay Naked Skin Bronzing Beauty Balm SPF 20; Urban Decay Naked Skin Dark Beauty Balm SPF20; Urban Decay Naked Skin Illuminating Beauty Balm SPF20; Urban Decay Naked Skin Light Beauty Balm SPF20; Urban Decay Naked Skin One and Done Hybrid Complexion Perfector Broad Spectrum SPF 20; Urban Environment Oil-free Uv Protector; Urban Environment Uv Protection Cream; Usana Sunblock Lotion SPF 15; Usana Sunblock Lotion SPF 30 Plus; Uv Aero; Uv Daily Tinted; Uv Defense; Uv Essentiel; Uv Essentiel Complete Sunscreen Uv Protection Anti-pollution Broad Spectrum SPF 50; Uv Essentiel Daily Defense Sunscreen Anti-pollution Broad Spectrum SPF 30; Uv Essentiel Daily Defense Sunscreen Anti-pollution Broad Spectrum SPF 50; Uv Essentiel SPF 50; Uv Essentiel Soin Quotidien Protection Uv Globale Complete Daily Uv Protection SPF 50/pa+++; Uv Hydrator; Uv Lip Balm; Uv Lock Flower 3 Proof Sun Spf50plus Pa Plus Plus Plus; Uv Lock Flower Daily Powerful Sun Spf50plus Pa Plus Plus Plus; Uv Lock Flower Non Chemical Sun Spf50plus Pa Plus Plus Plus; Uv Lock Flower Pact Sun Spf50plus Pa Plus Plus Plus; Uv Lock Flower Water Proof Sun Spf50plus Pa Plus Plus Plus; Uv Lock Ultra Milk Sun Big Size Spf50plus Pa Plus Plus Plus; Uv Lock Ultra Milk Sun Spf50plus Pa Plus Plus Plus; Uv Lock Ultra Pact Sun Spf50plus Pa Plus Plus Plus; Uv Natural 100 Mineral Sunkill Rx 12g; Uv Natural 100 Mineral Sunkill Rx 2.5g; Uv Natural 100 Mineral Sunkill Rx 3g; Uv Pro Broad Spectrum SPF 30; Uv Pro Broad Spectrum SPF 45; Uv-total Creme Ecran Solaire Fps 30; Uva/uvb SPF 15 Rodan and Fields; VANICREAM Sunscreen BROAD SPECTRUM SPF 30; VANICREAM Sunscreen BROAD SPECTRUM SPF 35; VANICREAM Sunscreen BROAD SPECTRUM SPF 50 PLUS; VITACILINA Bebe Diaper Rash; VP-HEME One; VP-heme OB; Vanicream Diaper Rash; Vanicream Lip Protectant/Sunscreen; Vanilla Latte Tinted Moisturizer; Vanilla Latte Tinted Moisturizer Broad Spectrum SPF 25 Sunscreen Light; Vanilla Lip Balm SPF 15; Vanishing Zinc Facial Sunscreen SPF 30 CVS; Vaseline Brand Int Care Baby Snblk Lot Spf15; Vasseur Skincare Day Matte SPF30; Veil Mineral Primer SPF 15; VeraSeptine Multipurpose Moisture Barrier; Vertra Elemental Resistance Water Resistant Sunscreen; Vida Mia Calaclear; Viniferamine SkinMineralZ; Virt-Pn; Vita Water Drop Cc; Vitabrid C12 DOCTOR Sensitive Face Powder; Vitabrid C12 FACE 12H VITAMIN C; Vitabrid C12 FACE 3g; Vitabrid C12 Face Brightening; Vitabrid C12 Hair Powder Professional; Vitabrid C12 Hair Powder Scalp Relief; Vitabrid C12 Spot; Vitabrid C12 Spot Sensitive Solution; Vitafol Ultra; Vitamin C BB Beauty Balm Sheer Tint SFP 30; VivierSkin Sun Protection SPF 45; Vivierskin Sheer Broad Spectrum SPF30; Vivierskin Sheer Broad Spectrum SPF45; Vivierskin Triple Protection Sunscreen Broad Spectrum SPF 30; Vmv Hypoallergenics Armada 30; Vmv Hypoallergenics Armada Baby 50; Vmv Hypoallergenics Armada Post Procedure 50 Plus; Vusion; W Honey Beam Cushion 21; W Honey Beam Cushion 23; W Lab BLOSSOM WHITE CUSHION 13 Blossom White; W Lab BLOSSOM WHITE CUSHION 21 Blossom Light; W Lab BLOSSOM WHITE CUSHION 23 Blossom Beige; W-snow Cc Cusion 21 Snow Light; W-snow Cc Cusion 23 Snow Beige; W.Lab W-SNOW CC CUSHION 21 SNOW LIGHT; W.Lab W-SNOW CC CUSHION 23 SNOW BEIGE; WHY Diaper Rash Pads; Walgreen Maximum Strength Diaper Rash; Walgreens Baby SPF50; Walgreens Calamine Skin Protectant; Walgreens Moisture Barrier; Walgreens SUNSCREEN Clear Zinc Broad Spectrum SPF 50; Walgreens SunscreenSPF 45 SPF 45 SPF 45; Walgreens SunscreenSPF 70 SPF 70; Walgreens Zinc Oxide; Walgreens Zinc SPF 50; Walgreens sunscreen Clear Zinc SPF50; Warm Dark Original; Warm Deep Original; Warm Tan Foundation SPF 15; Welmedix HomeCare PRO Extra Strength Rapid Rash Relief; Western Family Diaper Rash; Wet N Wild Beauty Benefits Fresh Effects Liquid Foundation SPF 15; Wet N Wild Pout Protector - (750-757) - Clear SPF 15; Wet N Wild Pout Protector - 752 - Tint Of Blush SPF 15; Wet N Wild Pout Protector - 753 - Tint Of Pink - SPF 15; Wet N Wild Pout Protector - 754 - Tint Of Bronze SPF 15; Wet N Wild Pout Protector - 755 - Tint Of Caramel - SPF 15; Wet N Wild Pout Protector - 756 - Tint Of Plum - SPF 15; Wet N Wild Pout Protector - 757- Tint Of Cranberry - SPF 15; White Mallow Diaper Rash Cream; White Stick; White and Elm Everyday SPF 15; Whole Body Organic Sunscreen; Whoo Gong Jin Hyang Jin Hae Yoon Sun; Will Ferrells SEXY HOT TAN Sunscreen SPF 30; Wonder Intensive BBCream 21 (Light); YVES ROCHER hydra vegetal HYDRATING DAY SPF 25 SUNSCREEN; Yadah Airpowder Pact 19 Light Beige; Yadah Airpowder Pact 21 Natural Beige; Yadah Be My Cushion 21 Light Beige; Yadah Be My Cushion 23 Natural Beige; Yadah Silky Fit Concealer Bb Power Brightening; Yadah Twin Angel Bb; Yellow Sunblock; Yerba Mate Mineral SPF 30 Broad Spectrum; Yes To Blueberries Daily Repairing Moisturizer SPF30; Yes To Carrots Daily Facial Moisturizer SPF 15; Yes To Carrots Fragrance-free Daily Facial Moisturizer Spf15; Yes To Carrots Sweet Fig Lip Butter with SPF 15; Yes To Cucumbers Daily Moisturizer SPF 30; Yes To Cucumbers Natural Sunscreen SPF 30; Yes To Cucumbers Natural Sunscreen SPF 30 Stick; Yes To Cucumbers Natural Sunscreen SPF 40 Kids; Yes To Grapefruit Cc Cream - Light; Yes To Grapefruit Cc Cream - Light/medium; Yes To Grapefruit Moisturizer with SPF15; Yes to Carrots Sweet Fig SPF15; Yes to Natural Man Broad Spectrum SPF 15 Face; YesTo Pomegranate Lip Butter with SPF 15; Your Name Cosmetics Brightening CC Cream Broad Spectrum SPF 20; Your Skin But Better Airbrush Perfecting Fair; Your Skin But Better Cc Airbrush Perfecting Deep; Your Skin But Better Cc Airbrush Perfecting Illumination Deep; Your Skin But Better Cc Airbrush Perfecting Illumination Fair; Your Skin But Better Cc Airbrush Perfecting Illumination Light; Your Skin But Better Cc Airbrush Perfecting Illumination Medium; Your Skin But Better Cc Airbrush Perfecting Illumination Medium Tan; Your Skin But Better Cc Airbrush Perfecting Illumination Rich; Your Skin But Better Cc Airbrush Perfecting Illumination Tan; Your Skin But Better Cc Airbrush Perfecting Light; Your Skin But Better Cc Airbrush Perfecting Medium; Your Skin But Better Cc Airbrush Perfecting Medium Tan; Your Skin But Better Cc Airbrush Perfecting Rich; Your Skin But Better Cc Airbrush Perfecting Tan; Your Skin But Better Cc Bronzer Bronze Glow; Your Skin But Better Cc Color Correcting Full Coverage SPF 50 Deep; Your Skin But Better Cc Color Correcting Full Coverage SPF 50 Fair; Your Skin But Better Cc Color Correcting Full Coverage SPF 50 Light; Your Skin But Better Cc Color Correcting Full Coverage SPF 50 Medium; Your Skin But Better Cc Color Correcting Full Coverage SPF 50 Medium Tan; Your Skin But Better Cc Color Correcting Full Coverage SPF 50 Medium-tan; Your Skin But Better Cc Color Correcting Full Coverage SPF 50 Rich; Your Skin But Better Cc Color Correcting Full Coverage SPF 50 Tan; Your Skin But Better Cc Eye Fair; Your Skin But Better Cc Eye Light; Your Skin But Better Cc Eye Medium; Your Skin But Better Cc Eye Rich; Your Skin But Better Cc Eye Tan; Your Skin But Better Cc Illumination Deep; Your Skin But Better Cc Illumination Fair; Your Skin But Better Cc Illumination Light; Your Skin But Better Cc Illumination Medium; Your Skin But Better Cc Illumination Medium-tan; Your Skin But Better Cc Illumination Rich; Your Skin But Better Cc Illumination Tan; Your Skin But Better Fair; Your Skin But Better Light; Youth Protection SPF 30; Youthful Wear Cosmeceutical Youth Boosting Foundation SPF 15; Youthful Wear Cosmeceutical Youth Boosting Spotless CC Cream; Youthtopia Skin Firming Foundation SPF 15; Z-Bum; Z-Guard; ZO MEDICAL OCLIPSE-C Broad-Spectrum Sunscreen SPF 50; Zebs broad spectrum sunscreen; Zermat Skin Platinum Series Cellular Beauty Caviar and Collagen Day SPF 30; ZinClear SPF 30 Tinted; Zinaderm Crm; Zinc Cream; Zinc Cream - 15%; Zinc Cream 15%; Zinc Ointment; Zinc Ointment 15%; Zinc Ont 15%; Zinc Oxide; Zinc Oxide 20%; Zinc Oxide Cream 15%; Zinc Oxide Diaper Rash; Zinc Oxide Ont 20%; Zinc Oxide Ont 20gm/100gm; Zinc Oxide Ont USP; Zinc Oxide and Dimethicone with Dimethicone; Zinc Oxide, Titanium Dioxide; Zinc Spf30 Ltn Cvs; Zinc Stick; Zinc and Castor Oil Cream BP; Zinc and Castor Oil Crm; Zinc oxide; Zincofax; Zincofax Extra Strength; Zincofax Fragrance Free Ointment 15%; Zincofax Original 15%; Zincoxide; Zinka Clear Zinc Oxide Sunscreen; Zinka SPF 50 Facestick; Zo Skin Health Level I Daily Skincare Program Essentials for Healthy Skin; Zo Skin Health Level II Anti-aging Program With Growth Factor Serum Plus; Zo Skin Health Level III Aggressive Anti-aging Program With Advanced Radical Night Repair; Zo Skin Health Ossential Daily Power Defense Anti-aging Formula and Oclipse Sunscreen Plus Primer Broad Spectrum SPF 30 Uva/uvb Protection; Zo Skin Health Sunsmart Triple Protection Program Natural Melanin and Antioxidant Defenders With Sunscreen Plus Primer SPF 30; a.c. care Bees Sun Protection; a.c.care Bees Shield B.B Cream SPF 35; ac care Bees Shield BB Broad Spectrum SPF 35; ac care Bees Sun Protection Broad Spectrum SPF 50; aqua fit cushion C11; aqua fit cushion C13; aqua fit cushion C21; aqua fit cushion C43; aqua fit cushion N21; aqua fit cushion N23; aqua fit cushion N27; aqua fit cushion N31; aqua fit cushion W21; aqua fit cushion W23; aqua fit cushion W33; aqua fit cushion W34; aqua fit cushion W35; aqua fit cushion W37; bareMinerals 5-in-1 BB Advanced Performance Mineral Veil Finishing Broad Spectrum SPF 20; bareMinerals Advanced Protection SPF 20 Moisturizer Combination Skin; bareMinerals Advanced Protection SPF 20 Moisturizer Sheer Tint Combination Skin; bareMinerals Daily Defense Broad Spectrum SPF 30; bareMinerals Matte Foundation Broad Spectrum SPF 15 Fairly Medium; bareMinerals Matte Foundation Broad Spectrum SPF 15 Golden Fair; bareMinerals Matte Foundation Broad Spectrum SPF 15 Warm Dark; bareMinerals Matte Foundation Broad Spectrum SPF 15 Warm Deep; bareMinerals Medium Beige Matte; bareMinerals Original Foundation Broad Spectrum SPF 15 Neutral Dark; bareMinerals Original Foundation Broad Spectrum SPF 15 Neutral Deep; bareMinerals Prep Step Mineral Shield Broad Spectrum SPF 50 Daily Prep; bareMinerals Prime Time BB Primer Daily Defense Broad Spectrum SPF 30 Fair; bareMinerals Prime Time BB Primer Daily Defense Broad Spectrum SPF 30 Light; bareMinerals Prime Time BB Primer Daily Defense Broad Spectrum SPF 30 Medium; bareMinerals Prime Time BB Primer Daily Defense Broad Spectrum SPF 30 Tan; bareMinerals READY Touch Up Veil Broad Spectrum SPF 15 Dark; bareMinerals READY Touch Up Veil Broad Spectrum SPF 15 Deep; bareMinerals READY Touch Up Veil Broad Spectrum SPF 15 Light; bareMinerals READY Touch Up Veil Broad Spectrum SPF 15 Medium; bareMinerals READY Touch Up Veil Broad Spectrum SPF 15 Tan; bareMinerals READY Touch Up Veil Broad Spectrum SPF 15 Translucent; bliss just a little tint oil-free tinted moisturizer broad spectrum SPF 20 sunscreen - Almond; bliss just a little tint oil-free tinted moisturizer broad spectrum SPF 20 sunscreen - Bronze; bliss just a little tint oil-free tinted moisturizer broad spectrum SPF 20 sunscreen - Espresso; bliss just a little tint oil-free tinted moisturizer broad spectrum SPF 20 sunscreen - Honey; bliss just a little tint oil-free tinted moisturizer broad spectrum SPF 20 sunscreen - Natural; bliss just a little tint oil-free tinted moisturizer broad spectrum SPF 20 sunscreen - Nude; bliss just a little tint oil-free tinted moisturizer broad spectrum SPF 20 sunscreen - Porcelain; bliss just a little tint oil-free tinted moisturizer broad spectrum SPF 20 sunscreen - Sand; bright guard SPF-30 SUNSCREEN; buybuyBABY maximum strength diaper rash skin protectant; buybuyBABY quick relief diaper rash cream; correcting cream Broad Spectrum SPF 15 asap; daily UV protection cream sebum care; defy time protector moisturizer broad spectrum SPF 15 Jafra time dynamics; do naturals SPF 32; elave Age Delay Daily Lip Defence SPF20; emilia SAFE HARBOR NATURAL SUNCARE; eyes lips face Mineral Concealer SPF 15; fine finish pressed powder C13; fine finish pressed powder C21; fine finish pressed powder C27; fine finish pressed powder C43; fine finish pressed powder N21; fine finish pressed powder N23; fine finish pressed powder N27; fine finish pressed powder N31; fine finish pressed powder N33; fine finish pressed powder W21; fine finish pressed powder W23; fine finish pressed powder W31; fine finish pressed powder W35; fine finish pressed powder W37; foundcealer 2-in-1 foundation and concealer Broad Spectrum SPF 15 Sunscreen deep; foundcealer 2-in-1 foundation and concealer Broad Spectrum SPF 15 Sunscreen fair; foundcealer 2-in-1 foundation and concealer Broad Spectrum SPF 15 Sunscreen light; foundcealer 2-in-1 foundation and concealer Broad Spectrum SPF 15 Sunscreen light-medium; foundcealer 2-in-1 foundation and concealer Broad Spectrum SPF 15 Sunscreen medium; foundcealer 2-in-1 foundation and concealer Broad Spectrum SPF 15 Sunscreen tan; gesgep ONE DROP PERFECTION HEALTHY; gesgep ONE DROP PERFECTION LIGHT; gesgep ONE DROP PERFECTION TRUE; goddess garden ORGANICS Baby NATURAL SUNSCREEN SPF 30; goddess garden ORGANICS Everyday NATURAL SUNSCREEN SPF 30; goddess garden ORGANICS Facial NATURAL SUNSCREEN SPF 30; goddess garden ORGANICS Kids NATURAL SUNSCREEN SPF 30; goddess garden ORGANICS Kids Sport NATURAL SUNSCREEN SPF 30; goddess garden ORGANICS Sport NATURAL SUNSCREEN SPF 30; healthy mamaBE WELL ROUNDED BE WELL ROUNDED; iBlanc Restora-Bright Elite Natural Sun Defense SPF 30; intense UV protection cream; isLeaf Cushion Concealer 21; isLeaf Cushion Concealer 23; jane Be Beautiful Multi-Benefit BB Broad Spectrum SPF 30 Dark; jane Be Beautiful Multi-Benefit BB Broad Spectrum SPF 30 Light; jane Be Beautiful Multi-Benefit BB Broad Spectrum SPF 30 Medium; koa protect our ocean life OXYBENZONE FREE Broad Spectrum SPF 30 UVA UVB Protection Sunscreen; made of Broad Spectrum SPF 30 Non-Nano Zinc Oxide Sunscreen; made of Diaper Rash Cream; mally Face Defender Foundation; mally Face Defender Foundation BB; mally Poreless Perfection Glowing Foundation Fair; mally Poreless Perfection Glowing Foundation Light; mally Poreless Perfection Glowing Foundation Medium; mally Poreless Perfection Glowing Foundation Rich; mally Poreless Perfection Glowing Foundation Tan; matte full cover cushion C11; matte full cover cushion C13; matte full cover cushion C21; matte full cover cushion C43; matte full cover cushion N21; matte full cover cushion N23; matte full cover cushion N27; matte full cover cushion N31; matte full cover cushion W21; matte full cover cushion W23; matte full cover cushion W33; matte full cover cushion W34; matte full cover cushion W35; matte full cover cushion W37; medpak(TM) Derma Guard; myBody PROTECT AND SERVE SPF-30; napoleon PERDIS ADVANCED MINERAL MAKEUP BROAD SPECTRUM SPF 15 Look 1; napoleon PERDIS ADVANCED MINERAL MAKEUP BROAD SPECTRUM SPF 15 Look 2; napoleon PERDIS ADVANCED MINERAL MAKEUP BROAD SPECTRUM SPF 15 Look 3; napoleon PERDIS ADVANCED MINERAL MAKEUP BROAD SPECTRUM SPF 15 Look 4; napoleon PERDIS ADVANCED MINERAL MAKEUP BROAD SPECTRUM SPF 15 Look 5; napoleon PERDIS AUTO PILOT BBB CREAM BROAD SPECTRUM SPF 30 LIGHT-MEDIUM; napoleon PERDIS AUTO PILOT BBB CREAM BROAD SPECTRUM SPF 30 MEDIUM-DARK; napoleon PERDIS CHINA DOLL FOUNDATION BROAD SPECTRUM SPF 15 Look 1; napoleon PERDIS CHINA DOLL FOUNDATION BROAD SPECTRUM SPF 15 Look 2; napoleon PERDIS CHINA DOLL FOUNDATION BROAD SPECTRUM SPF 15 Look 2B; napoleon PERDIS CHINA DOLL FOUNDATION BROAD SPECTRUM SPF 15 Look 3; napoleon PERDIS CHINA DOLL FOUNDATION BROAD SPECTRUM SPF 15 Look 4; plantogen Protective Moisturizer Broad Spectrum SPF; restorsea Rejuvenating Day SPF 30 Broad Spectrum UVA UVB with Vibransea Complex; stila bronzing tinted moisturizer oil-free SPF 20; touch in SOL Advanced Real Moisture Li quid Foundation 21 Nude Beige; touch in SOL Advanced Real Moisture Li quid Foundation 23 Natural Beige; touch in SOL Dark Long Lasting Primer Base BRIGHT PURPLE; touch in SOL Dark Long Lasting Primer Base PURE PEACH; touch in SOL Dark Out Long Lasting Primer Base FRESH GREEN; touch in SOL Pang Pang Sun Cutting; true natural Caribbean Coconut 30; vbeaute Day Job 30ml; zermat skin Broad Spectrum Sunscreen SPF 30; Écran Jour Creme Protectrice SPF 15 - Avene

>  <SMILES>  (1) 
O=[Zn]

>  <SYNONYMS>  (1) 
óxido de cinc; oxyde de zinc; Zinc (as oxide); Zinc (as zinc oxide); Zinc white; Zinci oxydum; Zincum oxydatum; Zinkoxid

$$$$
