
     RDKit          2D

 36 39  0  0  0  0  0  0  0  0999 V2000
   -2.8621   -0.4713    0.0000 C   0  0  0  0  0  0  0  0  0  0  0  0
   -2.8621   -1.2963    0.0000 C   0  0  0  0  0  0  0  0  0  0  0  0
   -2.1476   -1.7088    0.0000 C   0  0  0  0  0  0  0  0  0  0  0  0
   -1.4331   -1.2963    0.0000 C   0  0  0  0  0  0  0  0  0  0  0  0
   -1.4331   -0.4713    0.0000 C   0  0  0  0  0  0  0  0  0  0  0  0
   -2.1476   -0.0588    0.0000 C   0  0  0  0  0  0  0  0  0  0  0  0
   -0.7187   -1.7088    0.0000 S   0  0  0  0  0  0  0  0  0  0  0  0
   -0.0042   -1.2963    0.0000 N   0  0  0  0  0  0  0  0  0  0  0  0
   -0.0042   -0.4713    0.0000 C   0  0  0  0  0  0  0  0  0  0  0  0
   -0.7187   -0.0588    0.0000 C   0  0  0  0  0  0  0  0  0  0  0  0
    0.7102   -0.0588    0.0000 C   0  0  0  0  0  0  0  0  0  0  0  0
    0.7102    0.7661    0.0000 N   0  0  0  0  0  0  0  0  0  0  0  0
   -0.0042    1.1786    0.0000 C   0  0  0  0  0  0  0  0  0  0  0  0
   -0.7187    0.7661    0.0000 O   0  0  0  0  0  0  0  0  0  0  0  0
    1.4368    1.1857    0.0000 C   0  0  0  0  0  0  0  0  0  0  0  0
    2.1476    0.7755    0.0000 C   0  0  0  0  0  0  0  0  0  0  0  0
    2.8621    1.1880    0.0000 C   0  0  0  0  0  0  0  0  0  0  0  0
    2.8620    2.0130    0.0000 C   0  0  0  0  0  0  0  0  0  0  0  0
    2.1512    2.4233    0.0000 C   0  0  0  0  0  0  0  0  0  0  0  0
    1.4368    2.0107    0.0000 N   0  0  0  0  0  0  0  0  0  0  0  0
   -0.0042    2.0035    0.0000 O   0  0  0  0  0  0  0  0  0  0  0  0
    0.7014   -1.7038    0.0000 C   0  0  0  0  0  0  0  0  0  0  0  0
    1.4368   -0.4785    0.0000 O   0  0  0  0  0  0  0  0  0  0  0  0
   -1.1311   -2.4233    0.0000 O   0  0  0  0  0  0  0  0  0  0  0  0
   -0.3062   -2.4233    0.0000 O   0  0  0  0  0  0  0  0  0  0  0  0
    0.0000    0.0000    0.0000 H   0  0  0  0  0  0  0  0  0  0  0  0
    0.0000    0.0000    0.0000 H   0  0  0  0  0  0  0  0  0  0  0  0
    0.0000    0.0000    0.0000 H   0  0  0  0  0  0  0  0  0  0  0  0
    0.0000    0.0000    0.0000 H   0  0  0  0  0  0  0  0  0  0  0  0
    0.0000    0.0000    0.0000 H   0  0  0  0  0  0  0  0  0  0  0  0
    0.0000    0.0000    0.0000 H   0  0  0  0  0  0  0  0  0  0  0  0
    0.0000    0.0000    0.0000 H   0  0  0  0  0  0  0  0  0  0  0  0
    0.0000    0.0000    0.0000 H   0  0  0  0  0  0  0  0  0  0  0  0
    0.0000    0.0000    0.0000 H   0  0  0  0  0  0  0  0  0  0  0  0
    0.0000    0.0000    0.0000 H   0  0  0  0  0  0  0  0  0  0  0  0
    0.0000    0.0000    0.0000 H   0  0  0  0  0  0  0  0  0  0  0  0
  1  2  2  0
  2  3  1  0
  3  4  2  0
  4  5  1  0
  5  6  2  0
  1  6  1  0
  4  7  1  0
  7  8  1  0
  8  9  1  0
  9 10  2  0
  5 10  1  0
  9 11  1  0
 11 12  1  0
 12 13  1  0
 13 14  1  0
 10 14  1  0
 12 15  1  0
 15 16  2  0
 16 17  1  0
 17 18  2  0
 18 19  1  0
 19 20  2  0
 15 20  1  0
 13 21  2  0
  8 22  1  0
 11 23  2  0
  7 24  2  0
 25  7  2  0
  1 26  1  0
  2 27  1  0
  3 28  1  0
  6 29  1  0
 16 30  1  0
 17 31  1  0
 18 32  1  0
 19 33  1  0
 22 34  1  0
 22 35  1  0
 22 36  1  0
M  END
>  <ALOGPS_LOGP>  (1) 
1.75

>  <ALOGPS_LOGS>  (1) 
-4.05

>  <ALOGPS_SOLUBILITY>  (1) 
3.19e-02 g/l

>  <DATABASE_ID>  (1) 
DB09215

>  <DATABASE_NAME>  (1) 
drugbank

>  <DRUGBANK_ID>  (1) 
DB09215

>  <DRUG_GROUPS>  (1) 
approved

>  <EXACT_MASS>  (1) 
357.04194164

>  <FORMULA>  (1) 
C16H11N3O5S

>  <GENERIC_NAME>  (1) 
Droxicam

>  <INCHI_IDENTIFIER>  (1) 
InChI=1S/C16H11N3O5S/c1-18-13-14(10-6-2-3-7-11(10)25(18,22)23)24-16(21)19(15(13)20)12-8-4-5-9-17-12/h2-9H,1H3

>  <INCHI_KEY>  (1) 
OEHFRZLKGRKFAS-UHFFFAOYSA-N

>  <JCHEM_ACCEPTOR_COUNT>  (1) 
5

>  <JCHEM_ATOM_COUNT>  (1) 
36

>  <JCHEM_AVERAGE_POLARIZABILITY>  (1) 
33.90424365086637

>  <JCHEM_BIOAVAILABILITY>  (1) 
1

>  <JCHEM_DONOR_COUNT>  (1) 
0

>  <JCHEM_FORMAL_CHARGE>  (1) 
0

>  <JCHEM_GHOSE_FILTER>  (1) 
1

>  <JCHEM_IUPAC>  (1) 
8-methyl-5-(pyridin-2-yl)-3-oxa-9λ⁶-thia-5,8-diazatricyclo[8.4.0.0²,⁷]tetradeca-1(14),2(7),10,12-tetraene-4,6,9,9-tetrone

>  <JCHEM_LOGP>  (1) 
1.225030268

>  <JCHEM_MDDR_LIKE_RULE>  (1) 
0

>  <JCHEM_NUMBER_OF_RINGS>  (1) 
4

>  <JCHEM_PHYSIOLOGICAL_CHARGE>  (1) 
0

>  <JCHEM_PKA_STRONGEST_BASIC>  (1) 
0.9241416057971596

>  <JCHEM_POLAR_SURFACE_AREA>  (1) 
96.88

>  <JCHEM_REFRACTIVITY>  (1) 
88.19089999999998

>  <JCHEM_ROTATABLE_BOND_COUNT>  (1) 
1

>  <JCHEM_RULE_OF_FIVE>  (1) 
1

>  <JCHEM_TRADITIONAL_IUPAC>  (1) 
droxicam

>  <JCHEM_VEBER_RULE>  (1) 
0

>  <MOLECULAR_WEIGHT>  (1) 
357.34

>  <SMILES>  (1) 
CN1C2=C(OC(=O)N(C2=O)C2=CC=CC=N2)C2=CC=CC=C2S1(=O)=O

$$$$
