
     RDKit          2D

 66 67  0  0  0  0  0  0  0  0999 V2000
   -0.8231    0.6859    0.0000 C   0  0  0  0  0  0  0  0  0  0  0  0
   -0.7913   -0.6858    0.0000 C   0  0  0  0  0  0  0  0  0  0  0  0
   -1.5356    1.0949    0.0000 C   0  0  0  0  0  0  0  0  0  0  0  0
   -0.1108    1.0913    0.0000 C   0  0  0  0  0  0  0  0  0  0  0  0
   -1.5072   -1.0948    0.0000 C   0  0  0  0  0  0  0  0  0  0  0  0
   -0.0790   -1.1019    0.0000 C   0  0  0  0  0  0  0  0  0  0  0  0
   -1.5320    1.9200    0.0000 C   0  0  0  0  0  0  0  0  0  0  0  0
   -2.2514    0.6893    0.0000 C   0  0  0  0  0  0  0  0  0  0  0  0
   -0.1072    1.9129    0.0000 C   0  0  0  0  0  0  0  0  0  0  0  0
    0.5979    0.6788    0.0000 C   0  0  0  0  0  0  0  0  0  0  0  0
   -1.5072   -1.9200    0.0000 C   0  0  0  0  0  0  0  0  0  0  0  0
   -0.0825   -1.9200    0.0000 C   0  0  0  0  0  0  0  0  0  0  0  0
   -0.8196    2.3291    0.0000 N   0  0  0  0  0  0  0  0  0  0  0  0
   -2.2443    2.3326    0.0000 C   0  0  0  0  0  0  0  0  0  0  0  0
   -2.9601    1.0983    0.0000 O   0  0  0  0  0  0  0  0  0  0  0  0
   -2.2514   -0.1392    0.0000 O   0  0  0  0  0  0  0  0  0  0  0  0
    0.6049    2.3255    0.0000 C   0  0  0  0  0  0  0  0  0  0  0  0
    1.3137    1.0843    0.0000 O   0  0  0  0  0  0  0  0  0  0  0  0
    0.5944   -0.1463    0.0000 O   0  0  0  0  0  0  0  0  0  0  0  0
   -0.7984   -2.3326    0.0000 C   0  0  0  0  0  0  0  0  0  0  0  0
   -3.6724    0.6893    0.0000 C   0  0  0  0  0  0  0  0  0  0  0  0
    2.0261    0.6717    0.0000 C   0  0  0  0  0  0  0  0  0  0  0  0
   -4.3847    1.1019    0.0000 C   0  0  0  0  0  0  0  0  0  0  0  0
    2.7683    1.0990    0.0000 C   0  0  0  0  0  0  0  0  0  0  0  0
    0.6615   -0.6791    0.0000 C   0  0  0  0  0  0  0  0  0  0  0  0
    1.3779   -1.0972    0.0000 C   0  0  0  0  0  0  0  0  0  0  0  0
    2.0998   -0.6850    0.0000 C   0  0  0  0  0  0  0  0  0  0  0  0
    2.8112   -1.1002    0.0000 O   0  0  0  0  0  0  0  0  0  0  0  0
    2.0618    0.1675    0.0000 O   0  0  0  0  0  0  0  0  0  0  0  0
    3.5356   -0.6865    0.0000 C   0  0  0  0  0  0  0  0  0  0  0  0
    4.3847   -0.1892    0.0000 C   0  0  0  0  0  0  0  0  0  0  0  0
    3.9448   -1.4033    0.0000 C   0  0  0  0  0  0  0  0  0  0  0  0
    3.1080    0.0625    0.0000 C   0  0  0  0  0  0  0  0  0  0  0  0
    0.0000    0.0000    0.0000 H   0  0  0  0  0  0  0  0  0  0  0  0
    0.0000    0.0000    0.0000 H   0  0  0  0  0  0  0  0  0  0  0  0
    0.0000    0.0000    0.0000 H   0  0  0  0  0  0  0  0  0  0  0  0
    0.0000    0.0000    0.0000 H   0  0  0  0  0  0  0  0  0  0  0  0
    0.0000    0.0000    0.0000 H   0  0  0  0  0  0  0  0  0  0  0  0
    0.0000    0.0000    0.0000 H   0  0  0  0  0  0  0  0  0  0  0  0
    0.0000    0.0000    0.0000 H   0  0  0  0  0  0  0  0  0  0  0  0
    0.0000    0.0000    0.0000 H   0  0  0  0  0  0  0  0  0  0  0  0
    0.0000    0.0000    0.0000 H   0  0  0  0  0  0  0  0  0  0  0  0
    0.0000    0.0000    0.0000 H   0  0  0  0  0  0  0  0  0  0  0  0
    0.0000    0.0000    0.0000 H   0  0  0  0  0  0  0  0  0  0  0  0
    0.0000    0.0000    0.0000 H   0  0  0  0  0  0  0  0  0  0  0  0
    0.0000    0.0000    0.0000 H   0  0  0  0  0  0  0  0  0  0  0  0
    0.0000    0.0000    0.0000 H   0  0  0  0  0  0  0  0  0  0  0  0
    0.0000    0.0000    0.0000 H   0  0  0  0  0  0  0  0  0  0  0  0
    0.0000    0.0000    0.0000 H   0  0  0  0  0  0  0  0  0  0  0  0
    0.0000    0.0000    0.0000 H   0  0  0  0  0  0  0  0  0  0  0  0
    0.0000    0.0000    0.0000 H   0  0  0  0  0  0  0  0  0  0  0  0
    0.0000    0.0000    0.0000 H   0  0  0  0  0  0  0  0  0  0  0  0
    0.0000    0.0000    0.0000 H   0  0  0  0  0  0  0  0  0  0  0  0
    0.0000    0.0000    0.0000 H   0  0  0  0  0  0  0  0  0  0  0  0
    0.0000    0.0000    0.0000 H   0  0  0  0  0  0  0  0  0  0  0  0
    0.0000    0.0000    0.0000 H   0  0  0  0  0  0  0  0  0  0  0  0
    0.0000    0.0000    0.0000 H   0  0  0  0  0  0  0  0  0  0  0  0
    0.0000    0.0000    0.0000 H   0  0  0  0  0  0  0  0  0  0  0  0
    0.0000    0.0000    0.0000 H   0  0  0  0  0  0  0  0  0  0  0  0
    0.0000    0.0000    0.0000 H   0  0  0  0  0  0  0  0  0  0  0  0
    0.0000    0.0000    0.0000 H   0  0  0  0  0  0  0  0  0  0  0  0
    0.0000    0.0000    0.0000 H   0  0  0  0  0  0  0  0  0  0  0  0
    0.0000    0.0000    0.0000 H   0  0  0  0  0  0  0  0  0  0  0  0
    0.0000    0.0000    0.0000 H   0  0  0  0  0  0  0  0  0  0  0  0
    0.0000    0.0000    0.0000 H   0  0  0  0  0  0  0  0  0  0  0  0
    0.0000    0.0000    0.0000 H   0  0  0  0  0  0  0  0  0  0  0  0
  1  2  1  0
  1  3  1  0
  1  4  1  0
  2  5  2  0
  2  6  1  0
  3  7  2  0
  3  8  1  0
  4  9  2  0
  4 10  1  0
  5 11  1  0
  6 12  2  0
  7 13  1  0
  7 14  1  0
  8 15  1  0
  8 16  2  0
  9 17  1  0
 10 18  1  0
 10 19  2  0
 11 20  2  0
 15 21  1  0
 18 22  1  0
 21 23  1  0
  9 13  1  0
 12 20  1  0
 22 24  1  0
  6 25  1  0
 25 26  2  0
 26 27  1  0
 27 28  1  0
 27 29  2  0
 28 30  1  0
 30 31  1  0
 30 32  1  0
 30 33  1  0
  1 34  1  0
  5 35  1  0
 11 36  1  0
 12 37  1  0
 13 38  1  0
 14 39  1  0
 14 40  1  0
 14 41  1  0
 17 42  1  0
 17 43  1  0
 17 44  1  0
 20 45  1  0
 21 46  1  0
 21 47  1  0
 22 48  1  0
 22 49  1  0
 23 50  1  0
 23 51  1  0
 23 52  1  0
 24 53  1  0
 24 54  1  0
 24 55  1  0
 25 56  1  0
 26 57  1  0
 31 58  1  0
 31 59  1  0
 31 60  1  0
 32 61  1  0
 32 62  1  0
 32 63  1  0
 33 64  1  0
 33 65  1  0
 33 66  1  0
M  END
>  <ALOGPS_LOGP>  (1) 
5.18

>  <ALOGPS_LOGS>  (1) 
-5.31

>  <ALOGPS_SOLUBILITY>  (1) 
2.24e-03 g/l

>  <DATABASE_ID>  (1) 
DB09236

>  <DATABASE_NAME>  (1) 
drugbank

>  <DRUGBANK_ID>  (1) 
DB09236

>  <DRUG_GROUPS>  (1) 
approved; investigational

>  <EXACT_MASS>  (1) 
455.230787787

>  <FORMULA>  (1) 
C26H33NO6

>  <GENERIC_NAME>  (1) 
Lacidipine

>  <INCHI_IDENTIFIER>  (1) 
InChI=1S/C26H33NO6/c1-8-31-24(29)21-16(3)27-17(4)22(25(30)32-9-2)23(21)19-13-11-10-12-18(19)14-15-20(28)33-26(5,6)7/h10-15,23,27H,8-9H2,1-7H3/b15-14+

>  <INCHI_KEY>  (1) 
GKQPCPXONLDCMU-CCEZHUSRSA-N

>  <INTERNATIONAL_BRANDS>  (1) 
Lacipil; Motens

>  <JCHEM_ACCEPTOR_COUNT>  (1) 
4

>  <JCHEM_ATOM_COUNT>  (1) 
66

>  <JCHEM_AVERAGE_POLARIZABILITY>  (1) 
49.7421774817729

>  <JCHEM_BIOAVAILABILITY>  (1) 
1

>  <JCHEM_DONOR_COUNT>  (1) 
1

>  <JCHEM_FORMAL_CHARGE>  (1) 
0

>  <JCHEM_GHOSE_FILTER>  (1) 
1

>  <JCHEM_IUPAC>  (1) 
3,5-diethyl 4-{2-[(1E)-3-(tert-butoxy)-3-oxoprop-1-en-1-yl]phenyl}-2,6-dimethyl-1,4-dihydropyridine-3,5-dicarboxylate

>  <JCHEM_LOGP>  (1) 
4.185153482666669

>  <JCHEM_MDDR_LIKE_RULE>  (1) 
0

>  <JCHEM_NUMBER_OF_RINGS>  (1) 
2

>  <JCHEM_PHYSIOLOGICAL_CHARGE>  (1) 
0

>  <JCHEM_PKA_STRONGEST_ACIDIC>  (1) 
19.472693801249065

>  <JCHEM_PKA_STRONGEST_BASIC>  (1) 
-6.4243192556523665

>  <JCHEM_POLAR_SURFACE_AREA>  (1) 
90.93

>  <JCHEM_REFRACTIVITY>  (1) 
129.9138

>  <JCHEM_ROTATABLE_BOND_COUNT>  (1) 
11

>  <JCHEM_RULE_OF_FIVE>  (1) 
1

>  <JCHEM_TRADITIONAL_IUPAC>  (1) 
lacidipine

>  <JCHEM_VEBER_RULE>  (1) 
0

>  <MOLECULAR_WEIGHT>  (1) 
455.551

>  <SMILES>  (1) 
CCOC(=O)C1=C(C)NC(C)=C(C1C1=CC=CC=C1\C=C\C(=O)OC(C)(C)C)C(=O)OCC

$$$$
