
     RDKit          2D

 48 50  0  0  1  0  0  0  0  0999 V2000
   -1.5956   -1.7768    0.0000 N   0  0  0  0  0  0  0  0  0  0  0  0
   -1.4241   -0.9698    0.0000 C   0  0  0  0  0  0  0  0  0  0  0  0
   -2.0372   -0.4178    0.0000 O   0  0  0  0  0  0  0  0  0  0  0  0
   -0.6394   -0.7149    0.0000 C   0  0  0  0  0  0  0  0  0  0  0  0
   -0.3845    0.0698    0.0000 C   0  0  0  0  0  0  0  0  0  0  0  0
    0.4405    0.0698    0.0000 C   0  0  0  0  0  0  0  0  0  0  0  0
    0.6954   -0.7149    0.0000 C   0  0  0  0  0  0  0  0  0  0  0  0
    0.0280   -1.1998    0.0000 N   0  0  0  0  0  0  0  0  0  0  0  0
    0.0280   -2.0248    0.0000 C   0  0  0  0  0  0  0  0  0  0  0  0
   -0.6865   -2.4373    0.0000 O   0  0  0  0  0  0  0  0  0  0  0  0
    0.7425   -2.4373    0.0000 C   0  0  0  0  0  0  0  0  0  0  0  0
    0.7425   -3.2623    0.0000 C   0  0  0  0  0  0  0  0  0  0  0  0
    0.0280   -3.6748    0.0000 C   0  0  0  0  0  0  0  0  0  0  0  0
   -0.0582   -4.4953    0.0000 C   0  0  0  0  0  0  0  0  0  0  0  0
   -0.8652   -4.6668    0.0000 N   0  0  0  0  0  0  0  0  0  0  0  0
   -1.2777   -3.9523    0.0000 C   0  0  0  0  0  0  0  0  0  0  0  0
   -0.7257   -3.3392    0.0000 N   0  0  0  0  0  0  0  0  0  0  0  0
    1.4569   -2.0248    0.0000 N   0  0  0  0  0  0  0  0  0  0  0  0
    2.1714   -2.4373    0.0000 C   0  0  0  0  0  0  0  0  0  0  0  0
    2.1714   -3.2623    0.0000 O   0  0  0  0  0  0  0  0  0  0  0  0
    2.8859   -2.0248    0.0000 C   0  0  0  0  0  0  0  0  0  0  0  0
    2.9721   -1.2043    0.0000 C   0  0  0  0  0  0  0  0  0  0  0  0
    3.7791   -1.0328    0.0000 C   0  0  0  0  0  0  0  0  0  0  0  0
    4.1916   -1.7472    0.0000 C   0  0  0  0  0  0  0  0  0  0  0  0
    5.0121   -1.8335    0.0000 O   0  0  0  0  0  0  0  0  0  0  0  0
    3.6396   -2.3603    0.0000 N   0  0  0  0  0  0  0  0  0  0  0  0
    0.0000    0.0000    0.0000 H   0  0  0  0  0  0  0  0  0  0  0  0
    0.0000    0.0000    0.0000 H   0  0  0  0  0  0  0  0  0  0  0  0
    0.0000    0.0000    0.0000 H   0  0  0  0  0  0  0  0  0  0  0  0
    0.0000    0.0000    0.0000 H   0  0  0  0  0  0  0  0  0  0  0  0
    0.0000    0.0000    0.0000 H   0  0  0  0  0  0  0  0  0  0  0  0
    0.0000    0.0000    0.0000 H   0  0  0  0  0  0  0  0  0  0  0  0
    0.0000    0.0000    0.0000 H   0  0  0  0  0  0  0  0  0  0  0  0
    0.0000    0.0000    0.0000 H   0  0  0  0  0  0  0  0  0  0  0  0
    0.0000    0.0000    0.0000 H   0  0  0  0  0  0  0  0  0  0  0  0
    0.0000    0.0000    0.0000 H   0  0  0  0  0  0  0  0  0  0  0  0
    0.0000    0.0000    0.0000 H   0  0  0  0  0  0  0  0  0  0  0  0
    0.0000    0.0000    0.0000 H   0  0  0  0  0  0  0  0  0  0  0  0
    0.0000    0.0000    0.0000 H   0  0  0  0  0  0  0  0  0  0  0  0
    0.0000    0.0000    0.0000 H   0  0  0  0  0  0  0  0  0  0  0  0
    0.0000    0.0000    0.0000 H   0  0  0  0  0  0  0  0  0  0  0  0
    0.0000    0.0000    0.0000 H   0  0  0  0  0  0  0  0  0  0  0  0
    0.0000    0.0000    0.0000 H   0  0  0  0  0  0  0  0  0  0  0  0
    0.0000    0.0000    0.0000 H   0  0  0  0  0  0  0  0  0  0  0  0
    0.0000    0.0000    0.0000 H   0  0  0  0  0  0  0  0  0  0  0  0
    0.0000    0.0000    0.0000 H   0  0  0  0  0  0  0  0  0  0  0  0
    0.0000    0.0000    0.0000 H   0  0  0  0  0  0  0  0  0  0  0  0
    0.0000    0.0000    0.0000 H   0  0  0  0  0  0  0  0  0  0  0  0
  1  2  1  0
  2  3  2  0
  4  2  1  1
  4  5  1  0
  5  6  1  0
  6  7  1  0
  7  8  1  0
  4  8  1  0
  8  9  1  0
  9 10  2  0
 11  9  1  1
 11 12  1  0
 12 13  1  0
 13 14  2  0
 14 15  1  0
 15 16  2  0
 16 17  1  0
 13 17  1  0
 11 18  1  0
 18 19  1  0
 19 20  2  0
 21 19  1  6
 21 22  1  0
 22 23  1  0
 23 24  1  0
 24 25  2  0
 24 26  1  0
 21 26  1  0
  1 27  1  0
  1 28  1  0
  4 29  1  0
  5 30  1  0
  5 31  1  0
  6 32  1  0
  6 33  1  0
  7 34  1  0
  7 35  1  0
 11 36  1  0
 12 37  1  0
 12 38  1  0
 14 39  1  0
 16 40  1  0
 17 41  1  0
 18 42  1  0
 21 43  1  0
 22 44  1  0
 22 45  1  0
 23 46  1  0
 23 47  1  0
 26 48  1  0
M  END
>  <ALOGPS_LOGP>  (1) 
-2.32

>  <ALOGPS_LOGS>  (1) 
-1.94

>  <ALOGPS_SOLUBILITY>  (1) 
4.18e+00 g/l

>  <DATABASE_ID>  (1) 
DB09421

>  <DATABASE_NAME>  (1) 
drugbank

>  <DRUGBANK_ID>  (1) 
DB09421

>  <DRUG_GROUPS>  (1) 
approved

>  <EXACT_MASS>  (1) 
362.170253222

>  <FORMULA>  (1) 
C16H22N6O4

>  <GENERIC_NAME>  (1) 
Protirelin

>  <INCHI_IDENTIFIER>  (1) 
InChI=1S/C16H22N6O4/c17-14(24)12-2-1-5-22(12)16(26)11(6-9-7-18-8-19-9)21-15(25)10-3-4-13(23)20-10/h7-8,10-12H,1-6H2,(H2,17,24)(H,18,19)(H,20,23)(H,21,25)/t10-,11-,12-/m0/s1

>  <INCHI_KEY>  (1) 
XNSAINXGIQZQOO-SRVKXCTJSA-N

>  <JCHEM_ACCEPTOR_COUNT>  (1) 
5

>  <JCHEM_AVERAGE_POLARIZABILITY>  (1) 
35.13091441510394

>  <JCHEM_BIOAVAILABILITY>  (1) 
1

>  <JCHEM_DONOR_COUNT>  (1) 
4

>  <JCHEM_FORMAL_CHARGE>  (1) 
0

>  <JCHEM_GHOSE_FILTER>  (1) 
0

>  <JCHEM_IUPAC>  (1) 
(2S)-N-[(2S)-1-[(2S)-2-carbamoylpyrrolidin-1-yl]-3-(1H-imidazol-5-yl)-1-oxopropan-2-yl]-5-oxopyrrolidine-2-carboxamide

>  <JCHEM_LOGP>  (1) 
-3.267828730666666

>  <JCHEM_MDDR_LIKE_RULE>  (1) 
1

>  <JCHEM_NUMBER_OF_RINGS>  (1) 
3

>  <JCHEM_PHYSIOLOGICAL_CHARGE>  (1) 
0

>  <JCHEM_PKA>  (1) 
12.051978143710429

>  <JCHEM_PKA_STRONGEST_ACIDIC>  (1) 
11.150831824623278

>  <JCHEM_PKA_STRONGEST_BASIC>  (1) 
6.742986390652123

>  <JCHEM_POLAR_SURFACE_AREA>  (1) 
150.28

>  <JCHEM_REFRACTIVITY>  (1) 
89.75559999999997

>  <JCHEM_ROTATABLE_BOND_COUNT>  (1) 
6

>  <JCHEM_RULE_OF_FIVE>  (1) 
1

>  <JCHEM_TRADITIONAL_IUPAC>  (1) 
(2S)-N-[(2S)-1-[(2S)-2-carbamoylpyrrolidin-1-yl]-3-(3H-imidazol-4-yl)-1-oxopropan-2-yl]-5-oxopyrrolidine-2-carboxamide

>  <JCHEM_VEBER_RULE>  (1) 
0

>  <MOLECULAR_WEIGHT>  (1) 
362.3837

>  <PRODUCTS>  (1) 
Relefact Trh Inj 0.2mg/ml; Relefact Trh Injection 200mcg/ml; Thyrotropin Releasing Hormone TRH

>  <SMILES>  (1) 
[H][C@@](CC1=CN=CN1)(NC(=O)[C@]1([H])CCC(=O)N1)C(=O)N1CCC[C@@]1([H])C(N)=O

>  <SYNONYMS>  (1) 
5-oxo-L-prolyl-L-histidyl-L-prolinamide; L-pyroglutamyl-L-histidyl-L-prolineamide; Protirelin; Thyroliberin; Thyrotropic releasing hormone; Thyrotropic-releasing factor; Thyrotropin releasing hormone; Thyrotropin-releasing factor; TRH; TSH-releasing factor; TSH-releasing hormone

$$$$
