
     RDKit          2D

 28 29  0  0  0  0  0  0  0  0999 V2000
   -2.3312    0.1673    0.0000 C   0  0  0  0  0  0  0  0  0  0  0  0
   -2.3312   -0.6577    0.0000 C   0  0  0  0  0  0  0  0  0  0  0  0
   -1.6167   -1.0703    0.0000 C   0  0  0  0  0  0  0  0  0  0  0  0
   -0.9021   -0.6577    0.0000 C   0  0  0  0  0  0  0  0  0  0  0  0
   -0.9021    0.1673    0.0000 C   0  0  0  0  0  0  0  0  0  0  0  0
   -1.6167    0.5798    0.0000 C   0  0  0  0  0  0  0  0  0  0  0  0
   -1.6167   -1.8952    0.0000 C   0  0  0  0  0  0  0  0  0  0  0  0
   -0.1765    0.5863    0.0000 N   0  0  0  0  0  0  0  0  0  0  0  0
    0.6028    0.3380    0.0000 C   0  0  0  0  0  0  0  0  0  0  0  0
    1.0810    1.0029    0.0000 C   0  0  0  0  0  0  0  0  0  0  0  0
    0.5965    1.6633    0.0000 O   0  0  0  0  0  0  0  0  0  0  0  0
   -0.1812    1.4065    0.0000 C   0  0  0  0  0  0  0  0  0  0  0  0
   -0.8607    1.8952    0.0000 O   0  0  0  0  0  0  0  0  0  0  0  0
    1.9197    1.0068    0.0000 C   0  0  0  0  0  0  0  0  0  0  0  0
    2.3312    0.3018    0.0000 O   0  0  0  0  0  0  0  0  0  0  0  0
    0.0000    0.0000    0.0000 H   0  0  0  0  0  0  0  0  0  0  0  0
    0.0000    0.0000    0.0000 H   0  0  0  0  0  0  0  0  0  0  0  0
    0.0000    0.0000    0.0000 H   0  0  0  0  0  0  0  0  0  0  0  0
    0.0000    0.0000    0.0000 H   0  0  0  0  0  0  0  0  0  0  0  0
    0.0000    0.0000    0.0000 H   0  0  0  0  0  0  0  0  0  0  0  0
    0.0000    0.0000    0.0000 H   0  0  0  0  0  0  0  0  0  0  0  0
    0.0000    0.0000    0.0000 H   0  0  0  0  0  0  0  0  0  0  0  0
    0.0000    0.0000    0.0000 H   0  0  0  0  0  0  0  0  0  0  0  0
    0.0000    0.0000    0.0000 H   0  0  0  0  0  0  0  0  0  0  0  0
    0.0000    0.0000    0.0000 H   0  0  0  0  0  0  0  0  0  0  0  0
    0.0000    0.0000    0.0000 H   0  0  0  0  0  0  0  0  0  0  0  0
    0.0000    0.0000    0.0000 H   0  0  0  0  0  0  0  0  0  0  0  0
    0.0000    0.0000    0.0000 H   0  0  0  0  0  0  0  0  0  0  0  0
  1  2  2  0
  2  3  1  0
  3  4  2  0
  4  5  1  0
  5  6  2  0
  1  6  1  0
  3  7  1  0
  5  8  1  0
  8  9  1  0
  9 10  1  0
 10 11  1  0
 11 12  1  0
  8 12  1  0
 12 13  2  0
 10 14  1  0
 14 15  1  0
  1 16  1  0
  2 17  1  0
  4 18  1  0
  6 19  1  0
  7 20  1  0
  7 21  1  0
  7 22  1  0
  9 23  1  0
  9 24  1  0
 10 25  1  0
 14 26  1  0
 14 27  1  0
 15 28  1  0
M  END
>  <ALOGPS_LOGP>  (1) 
0.61

>  <ALOGPS_LOGS>  (1) 
-0.58

>  <ALOGPS_SOLUBILITY>  (1) 
5.49e+01 g/l

>  <DATABASE_ID>  (1) 
DB09245

>  <DATABASE_NAME>  (1) 
drugbank

>  <DRUGBANK_ID>  (1) 
DB09245

>  <DRUG_GROUPS>  (1) 
approved

>  <EXACT_MASS>  (1) 
207.089543283

>  <FORMULA>  (1) 
C11H13NO3

>  <GENERIC_NAME>  (1) 
Toloxatone

>  <INCHI_IDENTIFIER>  (1) 
InChI=1S/C11H13NO3/c1-8-3-2-4-9(5-8)12-6-10(7-13)15-11(12)14/h2-5,10,13H,6-7H2,1H3

>  <INCHI_KEY>  (1) 
MXUNKHLAEDCYJL-UHFFFAOYSA-N

>  <JCHEM_ACCEPTOR_COUNT>  (1) 
3

>  <JCHEM_ATOM_COUNT>  (1) 
28

>  <JCHEM_AVERAGE_POLARIZABILITY>  (1) 
21.750061879351435

>  <JCHEM_BIOAVAILABILITY>  (1) 
1

>  <JCHEM_DONOR_COUNT>  (1) 
1

>  <JCHEM_FORMAL_CHARGE>  (1) 
0

>  <JCHEM_GHOSE_FILTER>  (1) 
1

>  <JCHEM_IUPAC>  (1) 
5-(hydroxymethyl)-3-(3-methylphenyl)-1,3-oxazolidin-2-one

>  <JCHEM_LOGP>  (1) 
1.405874892

>  <JCHEM_MDDR_LIKE_RULE>  (1) 
0

>  <JCHEM_NUMBER_OF_RINGS>  (1) 
2

>  <JCHEM_PHYSIOLOGICAL_CHARGE>  (1) 
0

>  <JCHEM_PKA_STRONGEST_ACIDIC>  (1) 
14.608044801547614

>  <JCHEM_PKA_STRONGEST_BASIC>  (1) 
-1.7200269650467828

>  <JCHEM_POLAR_SURFACE_AREA>  (1) 
49.769999999999996

>  <JCHEM_REFRACTIVITY>  (1) 
54.6952

>  <JCHEM_ROTATABLE_BOND_COUNT>  (1) 
2

>  <JCHEM_RULE_OF_FIVE>  (1) 
1

>  <JCHEM_TRADITIONAL_IUPAC>  (1) 
toloxatone

>  <JCHEM_VEBER_RULE>  (1) 
0

>  <MOLECULAR_WEIGHT>  (1) 
207.229

>  <SMILES>  (1) 
CC1=CC(=CC=C1)N1CC(CO)OC1=O

$$$$
