
     RDKit          2D

 43 46  0  0  0  0  0  0  0  0999 V2000
   -2.8563   -1.5683    0.0000 C   0  0  0  0  0  0  0  0  0  0  0  0
   -2.8563   -2.3933    0.0000 C   0  0  0  0  0  0  0  0  0  0  0  0
   -2.1418   -2.8058    0.0000 C   0  0  0  0  0  0  0  0  0  0  0  0
   -1.4273   -2.3933    0.0000 N   0  0  0  0  0  0  0  0  0  0  0  0
   -1.4273   -1.5683    0.0000 C   0  0  0  0  0  0  0  0  0  0  0  0
   -2.1418   -1.1558    0.0000 C   0  0  0  0  0  0  0  0  0  0  0  0
   -0.7018   -1.1493    0.0000 N   0  0  0  0  0  0  0  0  0  0  0  0
    0.0083   -1.5593    0.0000 C   0  0  0  0  0  0  0  0  0  0  0  0
    0.0085   -2.3930    0.0000 C   0  0  0  0  0  0  0  0  0  0  0  0
    0.7231   -2.8054    0.0000 C   0  0  0  0  0  0  0  0  0  0  0  0
    1.4375   -2.3926    0.0000 C   0  0  0  0  0  0  0  0  0  0  0  0
    1.4372   -1.5588    0.0000 C   0  0  0  0  0  0  0  0  0  0  0  0
    0.7226   -1.1465    0.0000 C   0  0  0  0  0  0  0  0  0  0  0  0
    2.1517   -1.1463    0.0000 C   0  0  0  0  0  0  0  0  0  0  0  0
    1.7392   -0.4318    0.0000 F   0  0  0  0  0  0  0  0  0  0  0  0
    2.5642   -1.8608    0.0000 F   0  0  0  0  0  0  0  0  0  0  0  0
    2.8661   -0.7338    0.0000 F   0  0  0  0  0  0  0  0  0  0  0  0
   -2.1418   -0.3308    0.0000 C   0  0  0  0  0  0  0  0  0  0  0  0
   -1.4373    0.0760    0.0000 O   0  0  0  0  0  0  0  0  0  0  0  0
   -2.8661    0.0874    0.0000 O   0  0  0  0  0  0  0  0  0  0  0  0
   -1.4373    0.9010    0.0000 C   0  0  0  0  0  0  0  0  0  0  0  0
   -0.7782    1.3801    0.0000 C   0  0  0  0  0  0  0  0  0  0  0  0
   -1.0301    2.1550    0.0000 C   0  0  0  0  0  0  0  0  0  0  0  0
   -1.8451    2.1549    0.0000 C   0  0  0  0  0  0  0  0  0  0  0  0
   -2.0967    1.3798    0.0000 O   0  0  0  0  0  0  0  0  0  0  0  0
    0.0288    1.2088    0.0000 C   0  0  0  0  0  0  0  0  0  0  0  0
    0.5806    1.8220    0.0000 C   0  0  0  0  0  0  0  0  0  0  0  0
    0.3287    2.5969    0.0000 C   0  0  0  0  0  0  0  0  0  0  0  0
   -0.4782    2.7682    0.0000 C   0  0  0  0  0  0  0  0  0  0  0  0
   -2.3178    2.8058    0.0000 O   0  0  0  0  0  0  0  0  0  0  0  0
    0.0000    0.0000    0.0000 H   0  0  0  0  0  0  0  0  0  0  0  0
    0.0000    0.0000    0.0000 H   0  0  0  0  0  0  0  0  0  0  0  0
    0.0000    0.0000    0.0000 H   0  0  0  0  0  0  0  0  0  0  0  0
    0.0000    0.0000    0.0000 H   0  0  0  0  0  0  0  0  0  0  0  0
    0.0000    0.0000    0.0000 H   0  0  0  0  0  0  0  0  0  0  0  0
    0.0000    0.0000    0.0000 H   0  0  0  0  0  0  0  0  0  0  0  0
    0.0000    0.0000    0.0000 H   0  0  0  0  0  0  0  0  0  0  0  0
    0.0000    0.0000    0.0000 H   0  0  0  0  0  0  0  0  0  0  0  0
    0.0000    0.0000    0.0000 H   0  0  0  0  0  0  0  0  0  0  0  0
    0.0000    0.0000    0.0000 H   0  0  0  0  0  0  0  0  0  0  0  0
    0.0000    0.0000    0.0000 H   0  0  0  0  0  0  0  0  0  0  0  0
    0.0000    0.0000    0.0000 H   0  0  0  0  0  0  0  0  0  0  0  0
    0.0000    0.0000    0.0000 H   0  0  0  0  0  0  0  0  0  0  0  0
  1  2  2  0
  2  3  1  0
  3  4  2  0
  4  5  1  0
  5  6  2  0
  1  6  1  0
  5  7  1  0
  7  8  1  0
  8  9  2  0
  9 10  1  0
 10 11  2  0
 11 12  1  0
 12 13  2  0
  8 13  1  0
 12 14  1  0
 14 15  1  0
 14 16  1  0
 14 17  1  0
  6 18  1  0
 18 19  1  0
 18 20  2  0
 19 21  1  0
 21 22  1  0
 22 23  2  0
 23 24  1  0
 24 25  1  0
 21 25  1  0
 22 26  1  0
 26 27  2  0
 27 28  1  0
 28 29  2  0
 23 29  1  0
 24 30  2  0
  1 31  1  0
  2 32  1  0
  3 33  1  0
  7 34  1  0
  9 35  1  0
 10 36  1  0
 11 37  1  0
 13 38  1  0
 21 39  1  0
 26 40  1  0
 27 41  1  0
 28 42  1  0
 29 43  1  0
M  END
>  <ALOGPS_LOGP>  (1) 
4.00

>  <ALOGPS_LOGS>  (1) 
-5.00

>  <ALOGPS_SOLUBILITY>  (1) 
4.17e-03 g/l

>  <DATABASE_ID>  (1) 
DB09295

>  <DATABASE_NAME>  (1) 
drugbank

>  <DRUGBANK_ID>  (1) 
DB09295

>  <DRUG_GROUPS>  (1) 
approved

>  <EXACT_MASS>  (1) 
414.082741396

>  <FORMULA>  (1) 
C21H13F3N2O4

>  <GENERIC_NAME>  (1) 
Talniflumate

>  <INCHI_IDENTIFIER>  (1) 
InChI=1S/C21H13F3N2O4/c22-21(23,24)12-5-3-6-13(11-12)26-17-16(9-4-10-25-17)19(28)30-20-15-8-2-1-7-14(15)18(27)29-20/h1-11,20H,(H,25,26)

>  <INCHI_KEY>  (1) 
ANMLJLFWUCQGKZ-UHFFFAOYSA-N

>  <JCHEM_ACCEPTOR_COUNT>  (1) 
4

>  <JCHEM_ATOM_COUNT>  (1) 
43

>  <JCHEM_AVERAGE_POLARIZABILITY>  (1) 
37.83365779478491

>  <JCHEM_BIOAVAILABILITY>  (1) 
1

>  <JCHEM_DONOR_COUNT>  (1) 
1

>  <JCHEM_FORMAL_CHARGE>  (1) 
0

>  <JCHEM_GHOSE_FILTER>  (1) 
0

>  <JCHEM_IUPAC>  (1) 
3-oxo-1,3-dihydro-2-benzofuran-1-yl 2-{[3-(trifluoromethyl)phenyl]amino}pyridine-3-carboxylate

>  <JCHEM_LOGP>  (1) 
6.653585348333333

>  <JCHEM_MDDR_LIKE_RULE>  (1) 
1

>  <JCHEM_NUMBER_OF_RINGS>  (1) 
4

>  <JCHEM_PHYSIOLOGICAL_CHARGE>  (1) 
0

>  <JCHEM_PKA>  (1) 
14.366060525587272

>  <JCHEM_PKA_STRONGEST_ACIDIC>  (1) 
13.331763281805252

>  <JCHEM_PKA_STRONGEST_BASIC>  (1) 
3.5007813085184614

>  <JCHEM_POLAR_SURFACE_AREA>  (1) 
77.52000000000001

>  <JCHEM_REFRACTIVITY>  (1) 
100.10629999999999

>  <JCHEM_ROTATABLE_BOND_COUNT>  (1) 
6

>  <JCHEM_RULE_OF_FIVE>  (1) 
0

>  <JCHEM_TRADITIONAL_IUPAC>  (1) 
talniflumate

>  <JCHEM_VEBER_RULE>  (1) 
0

>  <MOLECULAR_WEIGHT>  (1) 
414.34

>  <SMILES>  (1) 
FC(F)(F)C1=CC(NC2=C(C=CC=N2)C(=O)OC2OC(=O)C3=CC=CC=C23)=CC=C1

$$$$
