
     RDKit          2D

 73 72  0  0  0  0  0  0  0  0999 V2000
    5.9960   -4.2868    0.0000 C   0  0  0  0  0  0  0  0  0  0  0  0
   21.7144   -4.2868    0.0000 C   0  0  0  0  0  0  0  0  0  0  0  0
   21.4124   -5.4137    0.0000 C   0  0  0  0  0  0  0  0  0  0  0  0
   20.5874   -3.9848    0.0000 C   0  0  0  0  0  0  0  0  0  0  0  0
    6.7105   -4.6993    0.0000 C   0  0  0  0  0  0  0  0  0  0  0  0
    7.4250   -4.2868    0.0000 C   0  0  0  0  0  0  0  0  0  0  0  0
    8.1394   -4.6993    0.0000 C   0  0  0  0  0  0  0  0  0  0  0  0
    8.8539   -4.2868    0.0000 C   0  0  0  0  0  0  0  0  0  0  0  0
    9.5684   -4.6993    0.0000 C   0  0  0  0  0  0  0  0  0  0  0  0
   10.2828   -4.2868    0.0000 C   0  0  0  0  0  0  0  0  0  0  0  0
   10.9973   -4.6993    0.0000 C   0  0  0  0  0  0  0  0  0  0  0  0
   11.7118   -4.2868    0.0000 C   0  0  0  0  0  0  0  0  0  0  0  0
   12.4262   -4.6993    0.0000 C   0  0  0  0  0  0  0  0  0  0  0  0
   13.1407   -4.2868    0.0000 C   0  0  0  0  0  0  0  0  0  0  0  0
   13.8552   -4.6993    0.0000 C   0  0  0  0  0  0  0  0  0  0  0  0
   14.5697   -4.2868    0.0000 C   0  0  0  0  0  0  0  0  0  0  0  0
   15.2841   -4.6993    0.0000 C   0  0  0  0  0  0  0  0  0  0  0  0
   15.9986   -4.2868    0.0000 C   0  0  0  0  0  0  0  0  0  0  0  0
   20.2854   -5.1118    0.0000 C   0  0  0  0  0  0  0  0  0  0  0  0
   16.7131   -4.6993    0.0000 C   0  0  0  0  0  0  0  0  0  0  0  0
   19.5710   -4.6993    0.0000 C   0  0  0  0  0  0  0  0  0  0  0  0
   20.9999   -4.6993    0.0000 N   0  0  0  0  0  0  0  0  0  0  0  0
   17.7295   -5.4137    0.0000 O   0  0  0  0  0  0  0  0  0  0  0  0
   18.5545   -3.9848    0.0000 O   0  0  0  0  0  0  0  0  0  0  0  0
   17.4275   -4.2868    0.0000 O   0  0  0  0  0  0  0  0  0  0  0  0
   18.8565   -5.1118    0.0000 O   0  0  0  0  0  0  0  0  0  0  0  0
   18.1420   -4.6993    0.0000 P   0  0  0  0  0  0  0  0  0  0  0  0
    0.0000    0.0000    0.0000 H   0  0  0  0  0  0  0  0  0  0  0  0
    0.0000    0.0000    0.0000 H   0  0  0  0  0  0  0  0  0  0  0  0
    0.0000    0.0000    0.0000 H   0  0  0  0  0  0  0  0  0  0  0  0
    0.0000    0.0000    0.0000 H   0  0  0  0  0  0  0  0  0  0  0  0
    0.0000    0.0000    0.0000 H   0  0  0  0  0  0  0  0  0  0  0  0
    0.0000    0.0000    0.0000 H   0  0  0  0  0  0  0  0  0  0  0  0
    0.0000    0.0000    0.0000 H   0  0  0  0  0  0  0  0  0  0  0  0
    0.0000    0.0000    0.0000 H   0  0  0  0  0  0  0  0  0  0  0  0
    0.0000    0.0000    0.0000 H   0  0  0  0  0  0  0  0  0  0  0  0
    0.0000    0.0000    0.0000 H   0  0  0  0  0  0  0  0  0  0  0  0
    0.0000    0.0000    0.0000 H   0  0  0  0  0  0  0  0  0  0  0  0
    0.0000    0.0000    0.0000 H   0  0  0  0  0  0  0  0  0  0  0  0
    0.0000    0.0000    0.0000 H   0  0  0  0  0  0  0  0  0  0  0  0
    0.0000    0.0000    0.0000 H   0  0  0  0  0  0  0  0  0  0  0  0
    0.0000    0.0000    0.0000 H   0  0  0  0  0  0  0  0  0  0  0  0
    0.0000    0.0000    0.0000 H   0  0  0  0  0  0  0  0  0  0  0  0
    0.0000    0.0000    0.0000 H   0  0  0  0  0  0  0  0  0  0  0  0
    0.0000    0.0000    0.0000 H   0  0  0  0  0  0  0  0  0  0  0  0
    0.0000    0.0000    0.0000 H   0  0  0  0  0  0  0  0  0  0  0  0
    0.0000    0.0000    0.0000 H   0  0  0  0  0  0  0  0  0  0  0  0
    0.0000    0.0000    0.0000 H   0  0  0  0  0  0  0  0  0  0  0  0
    0.0000    0.0000    0.0000 H   0  0  0  0  0  0  0  0  0  0  0  0
    0.0000    0.0000    0.0000 H   0  0  0  0  0  0  0  0  0  0  0  0
    0.0000    0.0000    0.0000 H   0  0  0  0  0  0  0  0  0  0  0  0
    0.0000    0.0000    0.0000 H   0  0  0  0  0  0  0  0  0  0  0  0
    0.0000    0.0000    0.0000 H   0  0  0  0  0  0  0  0  0  0  0  0
    0.0000    0.0000    0.0000 H   0  0  0  0  0  0  0  0  0  0  0  0
    0.0000    0.0000    0.0000 H   0  0  0  0  0  0  0  0  0  0  0  0
    0.0000    0.0000    0.0000 H   0  0  0  0  0  0  0  0  0  0  0  0
    0.0000    0.0000    0.0000 H   0  0  0  0  0  0  0  0  0  0  0  0
    0.0000    0.0000    0.0000 H   0  0  0  0  0  0  0  0  0  0  0  0
    0.0000    0.0000    0.0000 H   0  0  0  0  0  0  0  0  0  0  0  0
    0.0000    0.0000    0.0000 H   0  0  0  0  0  0  0  0  0  0  0  0
    0.0000    0.0000    0.0000 H   0  0  0  0  0  0  0  0  0  0  0  0
    0.0000    0.0000    0.0000 H   0  0  0  0  0  0  0  0  0  0  0  0
    0.0000    0.0000    0.0000 H   0  0  0  0  0  0  0  0  0  0  0  0
    0.0000    0.0000    0.0000 H   0  0  0  0  0  0  0  0  0  0  0  0
    0.0000    0.0000    0.0000 H   0  0  0  0  0  0  0  0  0  0  0  0
    0.0000    0.0000    0.0000 H   0  0  0  0  0  0  0  0  0  0  0  0
    0.0000    0.0000    0.0000 H   0  0  0  0  0  0  0  0  0  0  0  0
    0.0000    0.0000    0.0000 H   0  0  0  0  0  0  0  0  0  0  0  0
    0.0000    0.0000    0.0000 H   0  0  0  0  0  0  0  0  0  0  0  0
    0.0000    0.0000    0.0000 H   0  0  0  0  0  0  0  0  0  0  0  0
    0.0000    0.0000    0.0000 H   0  0  0  0  0  0  0  0  0  0  0  0
    0.0000    0.0000    0.0000 H   0  0  0  0  0  0  0  0  0  0  0  0
    0.0000    0.0000    0.0000 H   0  0  0  0  0  0  0  0  0  0  0  0
  5  1  1  0
  6  5  1  0
  7  6  1  0
  8  7  1  0
  9  8  1  0
 10  9  1  0
 11 10  1  0
 12 11  1  0
 13 12  1  0
 14 13  1  0
 15 14  1  0
 16 15  1  0
 17 16  1  0
 18 17  1  0
 20 18  1  0
 21 19  1  0
 22  2  1  0
 22  3  1  0
 22  4  1  0
 22 19  1  0
 25 20  1  0
 26 21  1  0
 27 23  2  0
 27 24  1  0
 27 25  1  0
 27 26  1  0
  1 28  1  0
  1 29  1  0
  1 30  1  0
  2 31  1  0
  2 32  1  0
  2 33  1  0
  3 34  1  0
  3 35  1  0
  3 36  1  0
  4 37  1  0
  4 38  1  0
  4 39  1  0
  5 40  1  0
  5 41  1  0
  6 42  1  0
  6 43  1  0
  7 44  1  0
  7 45  1  0
  8 46  1  0
  8 47  1  0
  9 48  1  0
  9 49  1  0
 10 50  1  0
 10 51  1  0
 11 52  1  0
 11 53  1  0
 12 54  1  0
 12 55  1  0
 13 56  1  0
 13 57  1  0
 14 58  1  0
 14 59  1  0
 15 60  1  0
 15 61  1  0
 16 62  1  0
 16 63  1  0
 17 64  1  0
 17 65  1  0
 18 66  1  0
 18 67  1  0
 19 68  1  0
 19 69  1  0
 20 70  1  0
 20 71  1  0
 21 72  1  0
 21 73  1  0
M  CHG  2  22   1  24  -1
M  END
>  <ALOGPS_LOGP>  (1) 
2.68

>  <ALOGPS_LOGS>  (1) 
-6.32

>  <ALOGPS_SOLUBILITY>  (1) 
2.20e-04 g/l

>  <DATABASE_ID>  (1) 
DB09031

>  <DATABASE_NAME>  (1) 
drugbank

>  <DRUGBANK_ID>  (1) 
DB09031

>  <DRUG_GROUPS>  (1) 
approved

>  <EXACT_MASS>  (1) 
407.316445963

>  <FORMULA>  (1) 
C21H46NO4P

>  <GENERIC_NAME>  (1) 
Miltefosine

>  <INCHI_IDENTIFIER>  (1) 
InChI=1S/C21H46NO4P/c1-5-6-7-8-9-10-11-12-13-14-15-16-17-18-20-25-27(23,24)26-21-19-22(2,3)4/h5-21H2,1-4H3

>  <INCHI_KEY>  (1) 
PQLXHQMOHUQAKB-UHFFFAOYSA-N

>  <INTERNATIONAL_BRANDS>  (1) 
Miltex

>  <JCHEM_ACCEPTOR_COUNT>  (1) 
2

>  <JCHEM_ATOM_COUNT>  (1) 
73

>  <JCHEM_AVERAGE_POLARIZABILITY>  (1) 
50.584318757311486

>  <JCHEM_BIOAVAILABILITY>  (1) 
1

>  <JCHEM_DONOR_COUNT>  (1) 
0

>  <JCHEM_FORMAL_CHARGE>  (1) 
0

>  <JCHEM_GHOSE_FILTER>  (1) 
0

>  <JCHEM_IUPAC>  (1) 
hexadecyl 2-(trimethylazaniumyl)ethyl phosphate

>  <JCHEM_LOGP>  (1) 
2.2508485231949216

>  <JCHEM_MDDR_LIKE_RULE>  (1) 
0

>  <JCHEM_NUMBER_OF_RINGS>  (1) 
0

>  <JCHEM_PHYSIOLOGICAL_CHARGE>  (1) 
0

>  <JCHEM_PKA_STRONGEST_ACIDIC>  (1) 
1.8803148742183158

>  <JCHEM_POLAR_SURFACE_AREA>  (1) 
58.59

>  <JCHEM_REFRACTIVITY>  (1) 
125.51309999999998

>  <JCHEM_ROTATABLE_BOND_COUNT>  (1) 
20

>  <JCHEM_RULE_OF_FIVE>  (1) 
1

>  <JCHEM_TRADITIONAL_IUPAC>  (1) 
miltex

>  <JCHEM_VEBER_RULE>  (1) 
0

>  <MOLECULAR_WEIGHT>  (1) 
407.576

>  <PRODUCTS>  (1) 
Impavido

>  <SMILES>  (1) 
CCCCCCCCCCCCCCCCOP([O-])(=O)OCC[N+](C)(C)C

>  <SYNONYMS>  (1) 
hexadecyl 2-(trimethylazaniumyl)ethyl phosphate; Hexadecylphosphocholine; Hexadecylphosphorylcholine; Miltefosin; Miltefosina; Milt√©fosine; Monohexadecylphosphocholine; Monohexadecylphosphorylcholine

$$$$
