
     RDKit          2D

 35 36  0  0  0  0  0  0  0  0999 V2000
   -0.8138    1.6276    0.0000 F   0  0  0  0  0  0  0  0  0  0  0  0
   -3.0407   -0.3921    0.0000 O   0  0  0  0  0  0  0  0  0  0  0  0
   -0.8508   -1.6276    0.0000 O   0  0  0  0  0  0  0  0  0  0  0  0
    0.5474    0.8064    0.0000 O   0  0  0  0  0  0  0  0  0  0  0  0
    3.6991   -0.8433    0.0000 O   0  0  0  0  0  0  0  0  0  0  0  0
    2.2638    1.6202    0.0000 O   0  0  0  0  0  0  0  0  0  0  0  0
   -1.5536   -0.3921    0.0000 N   0  0  0  0  0  0  0  0  0  0  0  0
   -0.1109   -0.3921    0.0000 N   0  0  0  0  0  0  0  0  0  0  0  0
    2.9815    0.3920    0.0000 N   0  0  0  0  0  0  0  0  0  0  0  0
    2.2713   -0.8508    0.0000 N   0  0  0  0  0  0  0  0  0  0  0  0
   -0.8508   -0.8064    0.0000 C   0  0  0  0  0  0  0  0  0  0  0  0
   -2.3822   -0.8433    0.0000 C   0  0  0  0  0  0  0  0  0  0  0  0
   -0.8138    0.8433    0.0000 C   0  0  0  0  0  0  0  0  0  0  0  0
   -1.5536    0.4364    0.0000 C   0  0  0  0  0  0  0  0  0  0  0  0
   -0.1109    0.3920    0.0000 C   0  0  0  0  0  0  0  0  0  0  0  0
   -2.6264   -1.6276    0.0000 C   0  0  0  0  0  0  0  0  0  0  0  0
   -3.6991   -0.8433    0.0000 C   0  0  0  0  0  0  0  0  0  0  0  0
   -3.4550   -1.6276    0.0000 C   0  0  0  0  0  0  0  0  0  0  0  0
    2.9815   -0.4364    0.0000 C   0  0  0  0  0  0  0  0  0  0  0  0
    2.2638    0.7990    0.0000 C   0  0  0  0  0  0  0  0  0  0  0  0
    1.5536    0.3847    0.0000 C   0  0  0  0  0  0  0  0  0  0  0  0
    1.5536   -0.4439    0.0000 C   0  0  0  0  0  0  0  0  0  0  0  0
    0.0000    0.0000    0.0000 H   0  0  0  0  0  0  0  0  0  0  0  0
    0.0000    0.0000    0.0000 H   0  0  0  0  0  0  0  0  0  0  0  0
    0.0000    0.0000    0.0000 H   0  0  0  0  0  0  0  0  0  0  0  0
    0.0000    0.0000    0.0000 H   0  0  0  0  0  0  0  0  0  0  0  0
    0.0000    0.0000    0.0000 H   0  0  0  0  0  0  0  0  0  0  0  0
    0.0000    0.0000    0.0000 H   0  0  0  0  0  0  0  0  0  0  0  0
    0.0000    0.0000    0.0000 H   0  0  0  0  0  0  0  0  0  0  0  0
    0.0000    0.0000    0.0000 H   0  0  0  0  0  0  0  0  0  0  0  0
    0.0000    0.0000    0.0000 H   0  0  0  0  0  0  0  0  0  0  0  0
    0.0000    0.0000    0.0000 H   0  0  0  0  0  0  0  0  0  0  0  0
    0.0000    0.0000    0.0000 H   0  0  0  0  0  0  0  0  0  0  0  0
    0.0000    0.0000    0.0000 H   0  0  0  0  0  0  0  0  0  0  0  0
    0.0000    0.0000    0.0000 H   0  0  0  0  0  0  0  0  0  0  0  0
  1 13  1  0
  2 12  1  0
  2 17  1  0
  3 11  2  0
  4 15  2  0
  5 19  2  0
  6 20  2  0
  7 11  1  0
  7 12  1  0
  7 14  1  0
  8 11  1  0
  8 15  1  0
  9 19  1  0
  9 20  1  0
 10 19  1  0
 10 22  1  0
 12 16  1  0
 13 14  2  0
 13 15  1  0
 16 18  1  0
 17 18  1  0
 20 21  1  0
 21 22  2  0
  8 23  1  0
  9 24  1  0
 10 25  1  0
 12 26  1  0
 14 27  1  0
 16 28  1  0
 16 29  1  0
 17 30  1  0
 17 31  1  0
 18 32  1  0
 18 33  1  0
 21 34  1  0
 22 35  1  0
M  END
>  <ALOGPS_LOGP>  (1) 
-0.09

>  <ALOGPS_LOGS>  (1) 
-1.16

>  <ALOGPS_SOLUBILITY>  (1) 
1.40e+01 g/l

>  <DATABASE_ID>  (1) 
DB09327

>  <DATABASE_NAME>  (1) 
drugbank

>  <DRUGBANK_ID>  (1) 
DB09327

>  <DRUG_GROUPS>  (1) 
approved; investigational

>  <EXACT_MASS>  (1) 
312.086997698

>  <FORMULA>  (1) 
C12H13FN4O5

>  <GENERIC_NAME>  (1) 
Tegafur-uracil

>  <INCHI_IDENTIFIER>  (1) 
InChI=1S/C8H9FN2O3.C4H4N2O2/c9-5-4-11(6-2-1-3-14-6)8(13)10-7(5)12;7-3-1-2-5-4(8)6-3/h4,6H,1-3H2,(H,10,12,13);1-2H,(H2,5,6,7,8)

>  <INCHI_KEY>  (1) 
DHMYGZIEILLVNR-UHFFFAOYSA-N

>  <JCHEM_ACCEPTOR_COUNT>  (1) 
3

>  <JCHEM_ATOM_COUNT>  (1) 
35

>  <JCHEM_AVERAGE_POLARIZABILITY>  (1) 
17.509057695363403

>  <JCHEM_BIOAVAILABILITY>  (1) 
1

>  <JCHEM_DONOR_COUNT>  (1) 
1

>  <JCHEM_FORMAL_CHARGE>  (1) 
0

>  <JCHEM_GHOSE_FILTER>  (1) 
1

>  <JCHEM_IUPAC>  (1) 
1,2,3,4-tetrahydropyrimidine-2,4-dione; 5-fluoro-1-(oxolan-2-yl)-1,2,3,4-tetrahydropyrimidine-2,4-dione

>  <JCHEM_LOGP>  (1) 
0.023826538333333702

>  <JCHEM_MDDR_LIKE_RULE>  (1) 
0

>  <JCHEM_NUMBER_OF_RINGS>  (1) 
3

>  <JCHEM_PHYSIOLOGICAL_CHARGE>  (1) 
0

>  <JCHEM_PKA_STRONGEST_ACIDIC>  (1) 
8.078830885976586

>  <JCHEM_PKA_STRONGEST_BASIC>  (1) 
-4.251792191433699

>  <JCHEM_POLAR_SURFACE_AREA>  (1) 
58.64000000000001

>  <JCHEM_REFRACTIVITY>  (1) 
44.501400000000004

>  <JCHEM_ROTATABLE_BOND_COUNT>  (1) 
1

>  <JCHEM_RULE_OF_FIVE>  (1) 
1

>  <JCHEM_TRADITIONAL_IUPAC>  (1) 
tegafur; uracil

>  <JCHEM_VEBER_RULE>  (1) 
0

>  <MOLECULAR_WEIGHT>  (1) 
312.257

>  <SMILES>  (1) 
O=C1NC=CC(=O)N1.FC1=CN(C2CCCO2)C(=O)NC1=O

>  <SYNONYMS>  (1) 
Tegafur/uracil; UFT; UFUR

$$$$
