
     RDKit          2D

  6  4  0  0  0  0  0  0  0  0999 V2000
    0.0000    0.8250    0.0000 O   0  0  0  0  0  0  0  0  0  0  0  0
   -0.0000   -0.8250    0.0000 O   0  0  0  0  0  0  0  0  0  0  0  0
   -0.8250    0.0000    0.0000 O   0  0  0  0  0  0  0  0  0  0  0  0
    0.8250   -0.0000    0.0000 O   0  0  0  0  0  0  0  0  0  0  0  0
    0.0000   -0.0000    0.0000 S   0  0  0  0  0  0  0  0  0  0  0  0
    3.1821    0.0000    0.0000 Zn  0  0  0  0  0  0  0  0  0  0  0  0
  5  1  1  0
  5  2  1  0
  5  3  2  0
  5  4  2  0
M  CHG  3   1  -1   2  -1   6   2
M  END
>  <DATABASE_ID>  (1) 
DB09322

>  <DATABASE_NAME>  (1) 
drugbank

>  <DRUGBANK_ID>  (1) 
DB09322

>  <DRUG_GROUPS>  (1) 
approved

>  <EXACT_MASS>  (1) 
159.880875756

>  <FORMULA>  (1) 
O4SZn

>  <GENERIC_NAME>  (1) 
Zinc sulfate

>  <INCHI_IDENTIFIER>  (1) 
InChI=1S/H2O4S.Zn/c1-5(2,3)4;/h(H2,1,2,3,4);/q;+2/p-2

>  <INCHI_KEY>  (1) 
NWONKYPBYAMBJT-UHFFFAOYSA-L

>  <JCHEM_ACCEPTOR_COUNT>  (1) 
4

>  <JCHEM_ATOM_COUNT>  (1) 
6

>  <JCHEM_AVERAGE_POLARIZABILITY>  (1) 
5.805278247285028

>  <JCHEM_BIOAVAILABILITY>  (1) 
1

>  <JCHEM_DONOR_COUNT>  (1) 
0

>  <JCHEM_FORMAL_CHARGE>  (1) 
0

>  <JCHEM_GHOSE_FILTER>  (1) 
0

>  <JCHEM_IUPAC>  (1) 
zinc(2+) ion sulfate

>  <JCHEM_LOGP>  (1) 
-0.8415520233333333

>  <JCHEM_MDDR_LIKE_RULE>  (1) 
0

>  <JCHEM_NUMBER_OF_RINGS>  (1) 
0

>  <JCHEM_PHYSIOLOGICAL_CHARGE>  (1) 
-2

>  <JCHEM_PKA>  (1) 
1.8964254257138706

>  <JCHEM_PKA_STRONGEST_ACIDIC>  (1) 
-3.034349054191991

>  <JCHEM_POLAR_SURFACE_AREA>  (1) 
80.25999999999999

>  <JCHEM_REFRACTIVITY>  (1) 
11.5274

>  <JCHEM_ROTATABLE_BOND_COUNT>  (1) 
0

>  <JCHEM_RULE_OF_FIVE>  (1) 
1

>  <JCHEM_TRADITIONAL_IUPAC>  (1) 
zinc(2+) ion sulfate

>  <JCHEM_VEBER_RULE>  (1) 
0

>  <MOLECULAR_WEIGHT>  (1) 
161.472

>  <PRODUCTS>  (1) 
8-symptom Relief; Allergy Eye Drops; Anodan-HC 10mg Suppositories; Anodan-HC Ointment; Anodan-plus; Anodan-plus Ointment; Anu-aide -  Ont Top  0.5%; Anugesic-HC Ointment; Anugesic-HC Suppositories; Anusol Plus Ointment; Anusol Plus Suppositories; Anusol-HC Ointment; Anusol-HC Suppositories; Anuzinc Plus Suppositories; CVS Astringent Eye; Care One Eye Drops Seasonal Relief; Clear Eyes Acr By Murine; Clear Eyes Allergy; Clear Eyes Complete 7 Symptom Relief; Clear Eyes Complete 7 Sympton Relief; Clear Eyes Cooling Itchy Eye Relief; Clear Eyes Maximum Itchy Eye Relief; Concept DHA; Concept OB; Dermagran Moisturizing Spray; Eau Resolutive Soker; Egozinc-HC; Eye Drops AC; Family Wellness Irritation Relief Ac Eye Drops; Freds Astringent Rdeness Reliever Eye; GoodSense Irritation Relief Eye; Goodsense Irritation Relief Eye; Hemorrhoid Ointment; Hemorrhoidal Ointment; Hemorrhoidal Ointment With Anesthetic for Extra Pain Relief; Irritation Relief Eye; Jampzinc-HC; Leader Relief; Leader Relief Eye; Multitrace -4; Multitrace -4 Pediatric; Multitrace-4; Multitrace-4 Neonatal; Multitrace-5; Premier Value Eye Ac; Proctodan-HC Ointment; Proctodan-HC Suppositories; PureVit DualFe Plus; Ratio-hemcort-HC; Rectogel HC; Riva-sol HC Ointment; Rivasol-HC Suppositories; Rohto Ice; Rohto Relief; Sandoz Anuzinc HC; Sandoz Anuzinc HC Plus; Sandoz Anuzinc HC Plus Suppositories; Sandoz Anuzinc HC Suppositories; Sandoz Anuzinc Plus; Se-Tan PLUS; Seasonal itchy and Red eye relief; Shopko Relief; Spd Tab; Tandem Plus; Trace Elements 4; Visine A.C. Ophthalmic Sol; Visine Multi-symptom; Visine for Allergy 3 Symptom Relief; Zinc Tally Liq 13.5mg/10ml; Zincfrin; Zincfrin A

>  <SALTS>  (1) 
Zinc sulfate heptahydrate; Zinc sulfate hexahydrate; Zinc sulfate monohydrate

>  <SMILES>  (1) 
[Zn++].[O-]S([O-])(=O)=O

$$$$
