 
     RDKit          2D

 60 62  0  0  1  0  0  0  0  0999 V2000
   23.3843  -18.8859    0.0000 C   0  0  0  0  0  0  0  0  0  0  0  0
   23.3843  -19.7109    0.0000 C   0  0  0  0  0  0  0  0  0  0  0  0
   24.0988  -20.1234    0.0000 C   0  0  0  0  0  0  0  0  0  0  0  0
   24.8133  -19.7109    0.0000 C   0  0  0  0  0  0  0  0  0  0  0  0
   24.8133  -18.8859    0.0000 C   0  0  0  0  0  0  0  0  0  0  0  0
   24.0988  -18.4733    0.0000 C   0  0  0  0  0  0  0  0  0  0  0  0
   25.5278  -20.1234    0.0000 C   0  0  0  0  0  0  0  0  0  0  0  0
   26.2423  -19.7109    0.0000 C   0  0  0  0  0  0  0  0  0  0  0  0
   26.2423  -18.8859    0.0000 C   0  0  0  0  0  0  0  0  0  0  0  0
   25.5278  -18.4733    0.0000 C   0  0  0  0  0  0  0  0  0  0  0  0
   26.9568  -20.1234    0.0000 N   0  0  0  0  0  0  0  0  0  0  0  0
   27.6712  -19.7109    0.0000 C   0  0  0  0  0  0  0  0  0  0  0  0
   27.6712  -18.8859    0.0000 C   0  0  0  0  0  0  0  0  0  0  0  0
   26.9568  -18.4733    0.0000 C   0  0  0  0  0  0  0  0  0  0  0  0
   24.0988  -17.6485    0.0000 O   0  0  0  0  0  0  0  0  0  0  0  0
   26.9568  -20.9482    0.0000 C   0  0  0  0  0  0  0  0  0  0  0  0
   27.6835  -21.3680    0.0000 C   0  0  0  0  0  0  0  0  0  0  0  0
   28.3943  -20.9578    0.0000 C   0  0  0  0  0  0  0  0  0  0  0  0
   28.3881  -18.4720    0.0000 N   0  0  0  0  0  0  0  0  0  0  0  0
   28.3872  -17.6533    0.0000 S   0  0  0  0  0  0  0  0  0  0  0  0
   29.2006  -17.6470    0.0000 N   0  0  0  0  0  0  0  0  0  0  0  0
   29.6193  -18.3593    0.0000 C   0  0  0  0  0  0  0  0  0  0  0  0
   29.6070  -16.9303    0.0000 C   0  0  0  0  0  0  0  0  0  0  0  0
   30.4378  -16.9238    0.0000 C   0  0  0  0  0  0  0  0  0  0  0  0
   30.4382  -18.3529    0.0000 C   0  0  0  0  0  0  0  0  0  0  0  0
   28.3799  -16.7739    0.0000 O   0  0  0  0  0  0  0  0  0  0  0  0
   27.5587  -17.6392    0.0000 O   0  0  0  0  0  0  0  0  0  0  0  0
    0.0000    0.0000    0.0000 H   0  0  0  0  0  0  0  0  0  0  0  0
    0.0000    0.0000    0.0000 H   0  0  0  0  0  0  0  0  0  0  0  0
    0.0000    0.0000    0.0000 H   0  0  0  0  0  0  0  0  0  0  0  0
    0.0000    0.0000    0.0000 H   0  0  0  0  0  0  0  0  0  0  0  0
    0.0000    0.0000    0.0000 H   0  0  0  0  0  0  0  0  0  0  0  0
    0.0000    0.0000    0.0000 H   0  0  0  0  0  0  0  0  0  0  0  0
    0.0000    0.0000    0.0000 H   0  0  0  0  0  0  0  0  0  0  0  0
    0.0000    0.0000    0.0000 H   0  0  0  0  0  0  0  0  0  0  0  0
    0.0000    0.0000    0.0000 H   0  0  0  0  0  0  0  0  0  0  0  0
    0.0000    0.0000    0.0000 H   0  0  0  0  0  0  0  0  0  0  0  0
    0.0000    0.0000    0.0000 H   0  0  0  0  0  0  0  0  0  0  0  0
    0.0000    0.0000    0.0000 H   0  0  0  0  0  0  0  0  0  0  0  0
    0.0000    0.0000    0.0000 H   0  0  0  0  0  0  0  0  0  0  0  0
    0.0000    0.0000    0.0000 H   0  0  0  0  0  0  0  0  0  0  0  0
    0.0000    0.0000    0.0000 H   0  0  0  0  0  0  0  0  0  0  0  0
    0.0000    0.0000    0.0000 H   0  0  0  0  0  0  0  0  0  0  0  0
    0.0000    0.0000    0.0000 H   0  0  0  0  0  0  0  0  0  0  0  0
    0.0000    0.0000    0.0000 H   0  0  0  0  0  0  0  0  0  0  0  0
    0.0000    0.0000    0.0000 H   0  0  0  0  0  0  0  0  0  0  0  0
    0.0000    0.0000    0.0000 H   0  0  0  0  0  0  0  0  0  0  0  0
    0.0000    0.0000    0.0000 H   0  0  0  0  0  0  0  0  0  0  0  0
    0.0000    0.0000    0.0000 H   0  0  0  0  0  0  0  0  0  0  0  0
    0.0000    0.0000    0.0000 H   0  0  0  0  0  0  0  0  0  0  0  0
    0.0000    0.0000    0.0000 H   0  0  0  0  0  0  0  0  0  0  0  0
    0.0000    0.0000    0.0000 H   0  0  0  0  0  0  0  0  0  0  0  0
    0.0000    0.0000    0.0000 H   0  0  0  0  0  0  0  0  0  0  0  0
    0.0000    0.0000    0.0000 H   0  0  0  0  0  0  0  0  0  0  0  0
    0.0000    0.0000    0.0000 H   0  0  0  0  0  0  0  0  0  0  0  0
    0.0000    0.0000    0.0000 H   0  0  0  0  0  0  0  0  0  0  0  0
    0.0000    0.0000    0.0000 H   0  0  0  0  0  0  0  0  0  0  0  0
    0.0000    0.0000    0.0000 H   0  0  0  0  0  0  0  0  0  0  0  0
    0.0000    0.0000    0.0000 H   0  0  0  0  0  0  0  0  0  0  0  0
    0.0000    0.0000    0.0000 H   0  0  0  0  0  0  0  0  0  0  0  0
  1  2  2  0
  2  3  1  0
  3  4  2  0
  4  5  1  0
  5  6  2  0
  1  6  1  0
  4  7  1  0
  7  8  1  0
  8  9  1  0
  9 10  1  0
  5 10  1  0
  8 11  1  0
 11 12  1  0
 12 13  1  0
 13 14  1  0
  9 14  1  0
  6 15  1  0
 11 16  1  0
 16 17  1  0
 17 18  1  0
 19 20  1  0
 20 21  1  0
 21 22  1  0
 21 23  1  0
 23 24  1  0
 22 25  1  0
 20 26  2  0
 20 27  2  0
 13 19  1  6
  1 28  1  0
  2 29  1  0
  3 30  1  0
  7 31  1  0
  7 32  1  0
  8 33  1  1
  9 34  1  6
 10 35  1  0
 10 36  1  0
 12 37  1  0
 12 38  1  0
 13 39  1  0
 14 40  1  0
 14 41  1  0
 15 42  1  0
 16 43  1  0
 16 44  1  0
 17 45  1  0
 17 46  1  0
 18 47  1  0
 18 48  1  0
 18 49  1  0
 19 50  1  0
 22 51  1  0
 22 52  1  0
 23 53  1  0
 23 54  1  0
 24 55  1  0
 24 56  1  0
 24 57  1  0
 25 58  1  0
 25 59  1  0
 25 60  1  0
M  END
>  <ALOGPS_LOGP>  (1) 
2.56

>  <ALOGPS_LOGS>  (1) 
-3.41

>  <ALOGPS_SOLUBILITY>  (1) 
1.54e-01 g/l

>  <DATABASE_ID>  (1) 
DB09097

>  <DATABASE_NAME>  (1) 
drugbank

>  <DRUGBANK_ID>  (1) 
DB09097

>  <DRUG_GROUPS>  (1) 
approved

>  <EXACT_MASS>  (1) 
395.224263109

>  <FORMULA>  (1) 
C20H33N3O3S

>  <GENERIC_NAME>  (1) 
Quinagolide

>  <INCHI_IDENTIFIER>  (1) 
InChI=1S/C20H33N3O3S/c1-4-10-22-14-17(21-27(25,26)23(5-2)6-3)11-16-12-18-15(13-19(16)22)8-7-9-20(18)24/h7-9,16-17,19,21,24H,4-6,10-14H2,1-3H3/t16-,17+,19-/m1/s1

>  <INCHI_KEY>  (1) 
GDFGTRDCCWFXTG-ZIFCJYIRSA-N

>  <JCHEM_ACCEPTOR_COUNT>  (1) 
5

>  <JCHEM_ATOM_COUNT>  (1) 
60

>  <JCHEM_AVERAGE_POLARIZABILITY>  (1) 
44.113058529600224

>  <JCHEM_BIOAVAILABILITY>  (1) 
1

>  <JCHEM_DONOR_COUNT>  (1) 
2

>  <JCHEM_FORMAL_CHARGE>  (1) 
0

>  <JCHEM_GHOSE_FILTER>  (1) 
1

>  <JCHEM_IUPAC>  (1) 
(3S,4aS,10aR)-3-[(diethylsulfamoyl)amino]-1-propyl-1H,2H,3H,4H,4aH,5H,10H,10aH-benzo[g]quinolin-6-ol

>  <JCHEM_LOGP>  (1) 
2.496315316333333

>  <JCHEM_MDDR_LIKE_RULE>  (1) 
0

>  <JCHEM_NUMBER_OF_RINGS>  (1) 
3

>  <JCHEM_PHYSIOLOGICAL_CHARGE>  (1) 
1

>  <JCHEM_PKA>  (1) 
10.920046447381837

>  <JCHEM_PKA_STRONGEST_ACIDIC>  (1) 
10.20321513981101

>  <JCHEM_PKA_STRONGEST_BASIC>  (1) 
8.2202498242168

>  <JCHEM_POLAR_SURFACE_AREA>  (1) 
72.88

>  <JCHEM_REFRACTIVITY>  (1) 
109.66009999999997

>  <JCHEM_ROTATABLE_BOND_COUNT>  (1) 
5

>  <JCHEM_RULE_OF_FIVE>  (1) 
1

>  <JCHEM_TRADITIONAL_IUPAC>  (1) 
quinagolide

>  <JCHEM_VEBER_RULE>  (1) 
0

>  <MOLECULAR_WEIGHT>  (1) 
395.56

>  <PRODUCTS>  (1) 
Norprolac

>  <SALTS>  (1) 
Quinagolide hydrochloride

>  <SMILES>  (1) 
[H][C@]12C[C@@H](CN(CCC)[C@]1([H])CC1=CC=CC(O)=C1C2)NS(=O)(=O)N(CC)CC

>  <SYNONYMS>  (1) 
(+-)-N,N-Diethyl-N'-((3R*,4aR*,10aS*)-1,2,3,4,4a,5,10,10a-octahydro-6-hydroxy-1-propylbenzo(g)quinolin-3-yl)sulfamide; CV205-502; Quinagolida; Quinagolidum; SDZ 205-502

$$$$
