
     RDKit          2D

 71 75  0  0  0  0  0  0  0  0999 V2000
    7.9731   -6.2691    0.0000 C   0  0  0  0  0  0  0  0  0  0  0  0
    6.1236   -0.0259    0.0000 C   0  0  0  0  0  0  0  0  0  0  0  0
    5.9400   -0.8302    0.0000 C   0  0  0  0  0  0  0  0  0  0  0  0
    8.3604   -5.5407    0.0000 C   0  0  0  0  0  0  0  0  0  0  0  0
    7.1486   -6.2979    0.0000 C   0  0  0  0  0  0  0  0  0  0  0  0
    4.5181   -2.1077    0.0000 C   0  0  0  0  0  0  0  0  0  0  0  0
    5.5188    0.5351    0.0000 C   0  0  0  0  0  0  0  0  0  0  0  0
    5.1517   -1.0734    0.0000 C   0  0  0  0  0  0  0  0  0  0  0  0
    4.2161    0.9370    0.0000 C   0  0  0  0  0  0  0  0  0  0  0  0
    3.3911    0.9370    0.0000 C   0  0  0  0  0  0  0  0  0  0  0  0
    2.0884    0.5351    0.0000 C   0  0  0  0  0  0  0  0  0  0  0  0
    1.4836   -0.0259    0.0000 C   0  0  0  0  0  0  0  0  0  0  0  0
    6.6615   -3.3452    0.0000 C   0  0  0  0  0  0  0  0  0  0  0  0
    5.9470   -4.5827    0.0000 C   0  0  0  0  0  0  0  0  0  0  0  0
    4.5181   -2.9327    0.0000 C   0  0  0  0  0  0  0  0  0  0  0  0
    7.9232   -4.8411    0.0000 C   0  0  0  0  0  0  0  0  0  0  0  0
    6.7114   -5.5983    0.0000 C   0  0  0  0  0  0  0  0  0  0  0  0
    3.8036   -1.6952    0.0000 C   0  0  0  0  0  0  0  0  0  0  0  0
    5.9470   -2.9327    0.0000 C   0  0  0  0  0  0  0  0  0  0  0  0
    5.2326   -4.1702    0.0000 C   0  0  0  0  0  0  0  0  0  0  0  0
    2.4555   -1.0734    0.0000 C   0  0  0  0  0  0  0  0  0  0  0  0
    4.7305    0.2919    0.0000 C   0  0  0  0  0  0  0  0  0  0  0  0
    2.8767    0.2919    0.0000 C   0  0  0  0  0  0  0  0  0  0  0  0
    1.6672   -0.8302    0.0000 C   0  0  0  0  0  0  0  0  0  0  0  0
    4.5469   -0.5123    0.0000 C   0  0  0  0  0  0  0  0  0  0  0  0
    3.0603   -0.5123    0.0000 C   0  0  0  0  0  0  0  0  0  0  0  0
    7.4860   -4.1990    0.0000 C   0  0  0  0  0  0  0  0  0  0  0  0
    6.6615   -4.1702    0.0000 C   0  0  0  0  0  0  0  0  0  0  0  0
    1.0624   -1.3914    0.0000 Cl  0  0  0  0  0  0  0  0  0  0  0  0
    8.2275   -4.5607    0.0000 N   0  0  0  0  0  0  0  0  0  0  0  0
    5.2326   -3.3452    0.0000 N   0  0  0  0  0  0  0  0  0  0  0  0
    7.0987   -4.8699    0.0000 N   0  0  0  0  0  0  0  0  0  0  0  0
    3.8036   -0.8702    0.0000 N   0  0  0  0  0  0  0  0  0  0  0  0
    7.9232   -3.4994    0.0000 O   0  0  0  0  0  0  0  0  0  0  0  0
    0.0000    0.0000    0.0000 H   0  0  0  0  0  0  0  0  0  0  0  0
    0.0000    0.0000    0.0000 H   0  0  0  0  0  0  0  0  0  0  0  0
    0.0000    0.0000    0.0000 H   0  0  0  0  0  0  0  0  0  0  0  0
    0.0000    0.0000    0.0000 H   0  0  0  0  0  0  0  0  0  0  0  0
    0.0000    0.0000    0.0000 H   0  0  0  0  0  0  0  0  0  0  0  0
    0.0000    0.0000    0.0000 H   0  0  0  0  0  0  0  0  0  0  0  0
    0.0000    0.0000    0.0000 H   0  0  0  0  0  0  0  0  0  0  0  0
    0.0000    0.0000    0.0000 H   0  0  0  0  0  0  0  0  0  0  0  0
    0.0000    0.0000    0.0000 H   0  0  0  0  0  0  0  0  0  0  0  0
    0.0000    0.0000    0.0000 H   0  0  0  0  0  0  0  0  0  0  0  0
    0.0000    0.0000    0.0000 H   0  0  0  0  0  0  0  0  0  0  0  0
    0.0000    0.0000    0.0000 H   0  0  0  0  0  0  0  0  0  0  0  0
    0.0000    0.0000    0.0000 H   0  0  0  0  0  0  0  0  0  0  0  0
    0.0000    0.0000    0.0000 H   0  0  0  0  0  0  0  0  0  0  0  0
    0.0000    0.0000    0.0000 H   0  0  0  0  0  0  0  0  0  0  0  0
    0.0000    0.0000    0.0000 H   0  0  0  0  0  0  0  0  0  0  0  0
    0.0000    0.0000    0.0000 H   0  0  0  0  0  0  0  0  0  0  0  0
    0.0000    0.0000    0.0000 H   0  0  0  0  0  0  0  0  0  0  0  0
    0.0000    0.0000    0.0000 H   0  0  0  0  0  0  0  0  0  0  0  0
    0.0000    0.0000    0.0000 H   0  0  0  0  0  0  0  0  0  0  0  0
    0.0000    0.0000    0.0000 H   0  0  0  0  0  0  0  0  0  0  0  0
    0.0000    0.0000    0.0000 H   0  0  0  0  0  0  0  0  0  0  0  0
    0.0000    0.0000    0.0000 H   0  0  0  0  0  0  0  0  0  0  0  0
    0.0000    0.0000    0.0000 H   0  0  0  0  0  0  0  0  0  0  0  0
    0.0000    0.0000    0.0000 H   0  0  0  0  0  0  0  0  0  0  0  0
    0.0000    0.0000    0.0000 H   0  0  0  0  0  0  0  0  0  0  0  0
    0.0000    0.0000    0.0000 H   0  0  0  0  0  0  0  0  0  0  0  0
    0.0000    0.0000    0.0000 H   0  0  0  0  0  0  0  0  0  0  0  0
    0.0000    0.0000    0.0000 H   0  0  0  0  0  0  0  0  0  0  0  0
    0.0000    0.0000    0.0000 H   0  0  0  0  0  0  0  0  0  0  0  0
    0.0000    0.0000    0.0000 H   0  0  0  0  0  0  0  0  0  0  0  0
    0.0000    0.0000    0.0000 H   0  0  0  0  0  0  0  0  0  0  0  0
    0.0000    0.0000    0.0000 H   0  0  0  0  0  0  0  0  0  0  0  0
    0.0000    0.0000    0.0000 H   0  0  0  0  0  0  0  0  0  0  0  0
    0.0000    0.0000    0.0000 H   0  0  0  0  0  0  0  0  0  0  0  0
    0.0000    0.0000    0.0000 H   0  0  0  0  0  0  0  0  0  0  0  0
    0.0000    0.0000    0.0000 H   0  0  0  0  0  0  0  0  0  0  0  0
  3  2  2  0
  4  1  1  0
  5  1  1  0
  7  2  1  0
  8  3  1  0
 10  9  1  0
 12 11  1  0
 15  6  1  0
 16  4  1  0
 17  5  1  0
 18  6  1  0
 19 13  1  0
 20 14  1  0
 22  7  2  0
 22  9  1  0
 23 10  1  0
 23 11  2  0
 24 12  2  0
 24 21  1  0
 25  8  2  0
 25 22  1  0
 26 21  2  0
 26 23  1  0
 28 13  1  0
 28 14  1  0
 28 27  1  0
 29 24  1  0
 30 27  2  3
 31 15  1  0
 31 19  1  0
 31 20  1  0
 32 16  1  0
 32 17  1  0
 32 28  1  0
 33 18  1  0
 33 25  1  0
 33 26  1  0
 34 27  1  0
  1 35  1  0
  1 36  1  0
  2 37  1  0
  3 38  1  0
  4 39  1  0
  4 40  1  0
  5 41  1  0
  5 42  1  0
  6 43  1  0
  6 44  1  0
  7 45  1  0
  8 46  1  0
  9 47  1  0
  9 48  1  0
 10 49  1  0
 10 50  1  0
 11 51  1  0
 12 52  1  0
 13 53  1  0
 13 54  1  0
 14 55  1  0
 14 56  1  0
 15 57  1  0
 15 58  1  0
 16 59  1  0
 16 60  1  0
 17 61  1  0
 17 62  1  0
 18 63  1  0
 18 64  1  0
 19 65  1  0
 19 66  1  0
 20 67  1  0
 20 68  1  0
 21 69  1  0
 30 70  1  0
 34 71  1  0
M  END
>  <ALOGPS_LOGP>  (1) 
4.69

>  <ALOGPS_LOGS>  (1) 
-4.94

>  <ALOGPS_SOLUBILITY>  (1) 
5.50e-03 g/l

>  <DATABASE_ID>  (1) 
DB09003

>  <DATABASE_NAME>  (1) 
drugbank

>  <DRUGBANK_ID>  (1) 
DB09003

>  <DRUG_GROUPS>  (1) 
approved

>  <EXACT_MASS>  (1) 
480.265589533

>  <FORMULA>  (1) 
C28H37ClN4O

>  <GENERIC_NAME>  (1) 
Clocapramine

>  <INCHI_IDENTIFIER>  (1) 
InChI=1S/C28H37ClN4O/c29-24-12-11-23-10-9-22-7-2-3-8-25(22)33(26(23)21-24)18-6-15-31-19-13-28(14-20-31,27(30)34)32-16-4-1-5-17-32/h2-3,7-8,11-12,21H,1,4-6,9-10,13-20H2,(H2,30,34)

>  <INCHI_KEY>  (1) 
QAZKXHSIKKNOHH-UHFFFAOYSA-N

>  <JCHEM_ACCEPTOR_COUNT>  (1) 
5

>  <JCHEM_AVERAGE_POLARIZABILITY>  (1) 
55.32459578635134

>  <JCHEM_BIOAVAILABILITY>  (1) 
1

>  <JCHEM_DONOR_COUNT>  (1) 
2

>  <JCHEM_FORMAL_CHARGE>  (1) 
0

>  <JCHEM_GHOSE_FILTER>  (1) 
0

>  <JCHEM_IUPAC>  (1) 
1-(3-{14-chloro-2-azatricyclo[9.4.0.0³,⁸]pentadeca-1(11),3,5,7,12,14-hexaen-2-yl}propyl)-4-(piperidin-1-yl)piperidine-4-carboximidic acid

>  <JCHEM_LOGP>  (1) 
2.8208173130968732

>  <JCHEM_MDDR_LIKE_RULE>  (1) 
1

>  <JCHEM_NUMBER_OF_RINGS>  (1) 
5

>  <JCHEM_PHYSIOLOGICAL_CHARGE>  (1) 
1

>  <JCHEM_PKA_STRONGEST_ACIDIC>  (1) 
3.0605443346237844

>  <JCHEM_PKA_STRONGEST_BASIC>  (1) 
9.473878979756565

>  <JCHEM_POLAR_SURFACE_AREA>  (1) 
53.80000000000001

>  <JCHEM_REFRACTIVITY>  (1) 
151.88669999999996

>  <JCHEM_ROTATABLE_BOND_COUNT>  (1) 
6

>  <JCHEM_RULE_OF_FIVE>  (1) 
1

>  <JCHEM_TRADITIONAL_IUPAC>  (1) 
1-(3-{14-chloro-2-azatricyclo[9.4.0.0³,⁸]pentadeca-1(11),3,5,7,12,14-hexaen-2-yl}propyl)-4-(piperidin-1-yl)piperidine-4-carboximidic acid

>  <JCHEM_VEBER_RULE>  (1) 
0

>  <MOLECULAR_WEIGHT>  (1) 
481.073

>  <SMILES>  (1) 
OC(=N)C1(CCN(CCCN2C3=CC=CC=C3CCC3=C2C=C(Cl)C=C3)CC1)N1CCCCC1

$$$$
