
     RDKit          2D

 61 61  0  0  0  0  0  0  0  0999 V2000
   -5.4423    2.1498    0.0000 C   0  0  0  0  0  0  0  0  0  0  0  0
   -4.7279    1.7373    0.0000 C   0  0  0  0  0  0  0  0  0  0  0  0
   -4.7279    0.9123    0.0000 N   0  0  0  0  0  0  0  0  0  0  0  0
   -5.4423    0.4998    0.0000 C   0  0  0  0  0  0  0  0  0  0  0  0
   -6.1568    0.9123    0.0000 C   0  0  0  0  0  0  0  0  0  0  0  0
   -6.1568    1.7373    0.0000 C   0  0  0  0  0  0  0  0  0  0  0  0
   -4.0134    0.4998    0.0000 C   0  0  0  0  0  0  0  0  0  0  0  0
   -3.2989    0.9123    0.0000 C   0  0  0  0  0  0  0  0  0  0  0  0
   -2.5845    0.4998    0.0000 N   0  0  0  0  0  0  0  0  0  0  0  0
   -1.8700    0.9123    0.0000 C   0  0  0  0  0  0  0  0  0  0  0  0
   -1.1555    0.4998    0.0000 C   0  0  0  0  0  0  0  0  0  0  0  0
   -0.4410    0.9123    0.0000 O   0  0  0  0  0  0  0  0  0  0  0  0
    0.2733    0.4998    0.0000 C   0  0  0  0  0  0  0  0  0  0  0  0
    0.9878    0.9123    0.0000 C   0  0  0  0  0  0  0  0  0  0  0  0
    1.7023    0.4998    0.0000 C   0  0  0  0  0  0  0  0  0  0  0  0
    2.4167    0.9123    0.0000 C   0  0  0  0  0  0  0  0  0  0  0  0
    3.1312    0.4998    0.0000 C   0  0  0  0  0  0  0  0  0  0  0  0
    3.8457    0.9123    0.0000 C   0  0  0  0  0  0  0  0  0  0  0  0
    4.5602    0.4998    0.0000 C   0  0  0  0  0  0  0  0  0  0  0  0
    5.2746    0.9123    0.0000 C   0  0  0  0  0  0  0  0  0  0  0  0
    5.9891    0.4998    0.0000 C   0  0  0  0  0  0  0  0  0  0  0  0
    6.7036    0.9123    0.0000 C   0  0  0  0  0  0  0  0  0  0  0  0
    7.4180    0.4998    0.0000 C   0  0  0  0  0  0  0  0  0  0  0  0
    8.1325    0.9123    0.0000 C   0  0  0  0  0  0  0  0  0  0  0  0
   -3.2989    1.7373    0.0000 O   0  0  0  0  0  0  0  0  0  0  0  0
    0.2733   -0.3251    0.0000 O   0  0  0  0  0  0  0  0  0  0  0  0
    0.0000    0.0000    0.0000 H   0  0  0  0  0  0  0  0  0  0  0  0
    0.0000    0.0000    0.0000 H   0  0  0  0  0  0  0  0  0  0  0  0
    0.0000    0.0000    0.0000 H   0  0  0  0  0  0  0  0  0  0  0  0
    0.0000    0.0000    0.0000 H   0  0  0  0  0  0  0  0  0  0  0  0
    0.0000    0.0000    0.0000 H   0  0  0  0  0  0  0  0  0  0  0  0
    0.0000    0.0000    0.0000 H   0  0  0  0  0  0  0  0  0  0  0  0
    0.0000    0.0000    0.0000 H   0  0  0  0  0  0  0  0  0  0  0  0
    0.0000    0.0000    0.0000 H   0  0  0  0  0  0  0  0  0  0  0  0
    0.0000    0.0000    0.0000 H   0  0  0  0  0  0  0  0  0  0  0  0
    0.0000    0.0000    0.0000 H   0  0  0  0  0  0  0  0  0  0  0  0
    0.0000    0.0000    0.0000 H   0  0  0  0  0  0  0  0  0  0  0  0
    0.0000    0.0000    0.0000 H   0  0  0  0  0  0  0  0  0  0  0  0
    0.0000    0.0000    0.0000 H   0  0  0  0  0  0  0  0  0  0  0  0
    0.0000    0.0000    0.0000 H   0  0  0  0  0  0  0  0  0  0  0  0
    0.0000    0.0000    0.0000 H   0  0  0  0  0  0  0  0  0  0  0  0
    0.0000    0.0000    0.0000 H   0  0  0  0  0  0  0  0  0  0  0  0
    0.0000    0.0000    0.0000 H   0  0  0  0  0  0  0  0  0  0  0  0
    0.0000    0.0000    0.0000 H   0  0  0  0  0  0  0  0  0  0  0  0
    0.0000    0.0000    0.0000 H   0  0  0  0  0  0  0  0  0  0  0  0
    0.0000    0.0000    0.0000 H   0  0  0  0  0  0  0  0  0  0  0  0
    0.0000    0.0000    0.0000 H   0  0  0  0  0  0  0  0  0  0  0  0
    0.0000    0.0000    0.0000 H   0  0  0  0  0  0  0  0  0  0  0  0
    0.0000    0.0000    0.0000 H   0  0  0  0  0  0  0  0  0  0  0  0
    0.0000    0.0000    0.0000 H   0  0  0  0  0  0  0  0  0  0  0  0
    0.0000    0.0000    0.0000 H   0  0  0  0  0  0  0  0  0  0  0  0
    0.0000    0.0000    0.0000 H   0  0  0  0  0  0  0  0  0  0  0  0
    0.0000    0.0000    0.0000 H   0  0  0  0  0  0  0  0  0  0  0  0
    0.0000    0.0000    0.0000 H   0  0  0  0  0  0  0  0  0  0  0  0
    0.0000    0.0000    0.0000 H   0  0  0  0  0  0  0  0  0  0  0  0
    0.0000    0.0000    0.0000 H   0  0  0  0  0  0  0  0  0  0  0  0
    0.0000    0.0000    0.0000 H   0  0  0  0  0  0  0  0  0  0  0  0
    0.0000    0.0000    0.0000 H   0  0  0  0  0  0  0  0  0  0  0  0
    0.0000    0.0000    0.0000 H   0  0  0  0  0  0  0  0  0  0  0  0
    0.0000    0.0000    0.0000 H   0  0  0  0  0  0  0  0  0  0  0  0
    0.0000    0.0000    0.0000 H   0  0  0  0  0  0  0  0  0  0  0  0
 12 13  1  0
  6  1  2  0
 13 14  1  0
  2  3  2  0
 14 15  1  0
  3  7  1  0
 15 16  1  0
 16 17  1  0
  7  8  1  0
 17 18  1  0
  3  4  1  0
 18 19  1  0
  8  9  1  0
 19 20  1  0
  1  2  1  0
 20 21  1  0
  9 10  1  0
 21 22  1  0
  4  5  2  0
 22 23  1  0
 10 11  1  0
 23 24  1  0
  8 25  2  0
 11 12  1  0
 13 26  2  0
  5  6  1  0
  1 27  1  0
  2 28  1  0
  4 29  1  0
  5 30  1  0
  6 31  1  0
  7 32  1  0
  7 33  1  0
  9 34  1  0
 10 35  1  0
 10 36  1  0
 11 37  1  0
 11 38  1  0
 14 39  1  0
 14 40  1  0
 15 41  1  0
 15 42  1  0
 16 43  1  0
 16 44  1  0
 17 45  1  0
 17 46  1  0
 18 47  1  0
 18 48  1  0
 19 49  1  0
 19 50  1  0
 20 51  1  0
 20 52  1  0
 21 53  1  0
 21 54  1  0
 22 55  1  0
 22 56  1  0
 23 57  1  0
 23 58  1  0
 24 59  1  0
 24 60  1  0
 24 61  1  0
M  CHG  1   3   1
M  END
>  <ALOGPS_LOGP>  (1) 
1.59

>  <ALOGPS_LOGS>  (1) 
-6.62

>  <ALOGPS_SOLUBILITY>  (1) 
9.66e-05 g/l

>  <DATABASE_ID>  (1) 
DB09376

>  <DATABASE_NAME>  (1) 
drugbank

>  <DRUGBANK_ID>  (1) 
DB09376

>  <DRUG_GROUPS>  (1) 
approved

>  <EXACT_MASS>  (1) 
363.264219415

>  <FORMULA>  (1) 
C21H35N2O3

>  <GENERIC_NAME>  (1) 
Lapyrium

>  <INCHI_IDENTIFIER>  (1) 
InChI=1S/C21H34N2O3/c1-2-3-4-5-6-7-8-9-11-14-21(25)26-18-15-22-20(24)19-23-16-12-10-13-17-23/h10,12-13,16-17H,2-9,11,14-15,18-19H2,1H3/p+1

>  <INCHI_KEY>  (1) 
UGJWZYARKOFRDB-UHFFFAOYSA-O

>  <JCHEM_ACCEPTOR_COUNT>  (1) 
2

>  <JCHEM_ATOM_COUNT>  (1) 
61

>  <JCHEM_AVERAGE_POLARIZABILITY>  (1) 
43.94509310453968

>  <JCHEM_BIOAVAILABILITY>  (1) 
1

>  <JCHEM_DONOR_COUNT>  (1) 
1

>  <JCHEM_FORMAL_CHARGE>  (1) 
1

>  <JCHEM_GHOSE_FILTER>  (1) 
1

>  <JCHEM_IUPAC>  (1) 
1-({[2-(dodecanoyloxy)ethyl]carbamoyl}methyl)pyridin-1-ium

>  <JCHEM_LOGP>  (1) 
0.159599019861589

>  <JCHEM_MDDR_LIKE_RULE>  (1) 
0

>  <JCHEM_NUMBER_OF_RINGS>  (1) 
1

>  <JCHEM_PHYSIOLOGICAL_CHARGE>  (1) 
1

>  <JCHEM_PKA>  (1) 
19.624394486706976

>  <JCHEM_PKA_STRONGEST_ACIDIC>  (1) 
12.728298291910278

>  <JCHEM_PKA_STRONGEST_BASIC>  (1) 
-6.512922257418457

>  <JCHEM_POLAR_SURFACE_AREA>  (1) 
59.28

>  <JCHEM_REFRACTIVITY>  (1) 
104.3397

>  <JCHEM_ROTATABLE_BOND_COUNT>  (1) 
16

>  <JCHEM_RULE_OF_FIVE>  (1) 
1

>  <JCHEM_TRADITIONAL_IUPAC>  (1) 
1-({[2-(dodecanoyloxy)ethyl]carbamoyl}methyl)pyridin-1-ium

>  <JCHEM_VEBER_RULE>  (1) 
0

>  <MOLECULAR_WEIGHT>  (1) 
363.521

>  <SALTS>  (1) 
Lapyrium chloride

>  <SMILES>  (1) 
CCCCCCCCCCCC(=O)OCCNC(=O)C[N+]1=CC=CC=C1

$$$$
