
     RDKit          2D

 55 58  0  0  0  0  0  0  0  0999 V2000
   -0.4386    0.7834    0.0000 C   0  0  0  0  0  0  0  0  0  0  0  0
   -1.1526    0.3701    0.0000 C   0  0  0  0  0  0  0  0  0  0  0  0
    0.2753    0.3701    0.0000 C   0  0  0  0  0  0  0  0  0  0  0  0
   -1.1526   -0.4566    0.0000 O   0  0  0  0  0  0  0  0  0  0  0  0
   -0.4386   -0.8699    0.0000 C   0  0  0  0  0  0  0  0  0  0  0  0
   -1.4782    1.0464    0.0000 O   0  0  0  0  0  0  0  0  0  0  0  0
   -1.9542    0.5581    0.0000 O   0  0  0  0  0  0  0  0  0  0  0  0
   -0.4762    1.6394    0.0000 C   0  0  0  0  0  0  0  0  0  0  0  0
   -2.3049    1.3012    0.0000 C   0  0  0  0  0  0  0  0  0  0  0  0
    0.2753   -0.4566    0.0000 C   0  0  0  0  0  0  0  0  0  0  0  0
   -1.5408    1.7019    0.0000 O   0  0  0  0  0  0  0  0  0  0  0  0
    0.9099    0.8711    0.0000 C   0  0  0  0  0  0  0  0  0  0  0  0
   -1.1317    2.2239    0.0000 C   0  0  0  0  0  0  0  0  0  0  0  0
   -0.4428   -1.6966    0.0000 O   0  0  0  0  0  0  0  0  0  0  0  0
    0.2126    2.1028    0.0000 C   0  0  0  0  0  0  0  0  0  0  0  0
    0.9140    1.6853    0.0000 C   0  0  0  0  0  0  0  0  0  0  0  0
   -1.9417    2.0485    0.0000 C   0  0  0  0  0  0  0  0  0  0  0  0
   -3.1316    1.3095    0.0000 C   0  0  0  0  0  0  0  0  0  0  0  0
    0.9892   -0.8699    0.0000 C   0  0  0  0  0  0  0  0  0  0  0  0
    0.2084    2.9295    0.0000 C   0  0  0  0  0  0  0  0  0  0  0  0
    0.2740   -2.1046    0.0000 C   0  0  0  0  0  0  0  0  0  0  0  0
    0.2740   -2.9296    0.0000 O   0  0  0  0  0  0  0  0  0  0  0  0
    0.9872   -1.6899    0.0000 C   0  0  0  0  0  0  0  0  0  0  0  0
    1.7028   -2.1002    0.0000 C   0  0  0  0  0  0  0  0  0  0  0  0
    2.4160   -1.6855    0.0000 C   0  0  0  0  0  0  0  0  0  0  0  0
    3.1317   -2.0958    0.0000 O   0  0  0  0  0  0  0  0  0  0  0  0
    2.4135   -0.8605    0.0000 O   0  0  0  0  0  0  0  0  0  0  0  0
    0.0000    0.0000    0.0000 H   0  0  0  0  0  0  0  0  0  0  0  0
    0.0000    0.0000    0.0000 H   0  0  0  0  0  0  0  0  0  0  0  0
    0.0000    0.0000    0.0000 H   0  0  0  0  0  0  0  0  0  0  0  0
    0.0000    0.0000    0.0000 H   0  0  0  0  0  0  0  0  0  0  0  0
    0.0000    0.0000    0.0000 H   0  0  0  0  0  0  0  0  0  0  0  0
    0.0000    0.0000    0.0000 H   0  0  0  0  0  0  0  0  0  0  0  0
    0.0000    0.0000    0.0000 H   0  0  0  0  0  0  0  0  0  0  0  0
    0.0000    0.0000    0.0000 H   0  0  0  0  0  0  0  0  0  0  0  0
    0.0000    0.0000    0.0000 H   0  0  0  0  0  0  0  0  0  0  0  0
    0.0000    0.0000    0.0000 H   0  0  0  0  0  0  0  0  0  0  0  0
    0.0000    0.0000    0.0000 H   0  0  0  0  0  0  0  0  0  0  0  0
    0.0000    0.0000    0.0000 H   0  0  0  0  0  0  0  0  0  0  0  0
    0.0000    0.0000    0.0000 H   0  0  0  0  0  0  0  0  0  0  0  0
    0.0000    0.0000    0.0000 H   0  0  0  0  0  0  0  0  0  0  0  0
    0.0000    0.0000    0.0000 H   0  0  0  0  0  0  0  0  0  0  0  0
    0.0000    0.0000    0.0000 H   0  0  0  0  0  0  0  0  0  0  0  0
    0.0000    0.0000    0.0000 H   0  0  0  0  0  0  0  0  0  0  0  0
    0.0000    0.0000    0.0000 H   0  0  0  0  0  0  0  0  0  0  0  0
    0.0000    0.0000    0.0000 H   0  0  0  0  0  0  0  0  0  0  0  0
    0.0000    0.0000    0.0000 H   0  0  0  0  0  0  0  0  0  0  0  0
    0.0000    0.0000    0.0000 H   0  0  0  0  0  0  0  0  0  0  0  0
    0.0000    0.0000    0.0000 H   0  0  0  0  0  0  0  0  0  0  0  0
    0.0000    0.0000    0.0000 H   0  0  0  0  0  0  0  0  0  0  0  0
    0.0000    0.0000    0.0000 H   0  0  0  0  0  0  0  0  0  0  0  0
    0.0000    0.0000    0.0000 H   0  0  0  0  0  0  0  0  0  0  0  0
    0.0000    0.0000    0.0000 H   0  0  0  0  0  0  0  0  0  0  0  0
    0.0000    0.0000    0.0000 H   0  0  0  0  0  0  0  0  0  0  0  0
    0.0000    0.0000    0.0000 H   0  0  0  0  0  0  0  0  0  0  0  0
  2  1  1  0
  3  1  1  0
  2  4  1  0
  5 10  1  0
  1  6  1  6
  7  2  1  0
  8  1  1  0
  9 11  1  0
 10  3  1  0
 11  6  1  0
 12  3  1  0
 13  8  1  0
  5 14  1  1
 15  8  1  0
 16 15  1  0
 17 13  1  0
  9 18  1  6
 10 19  1  6
 15 20  1  1
 16 12  1  0
  9 17  1  0
  9  7  1  0
  5  4  1  0
 14 21  1  0
 21 22  2  0
 21 23  1  0
 23 24  1  0
 24 25  1  0
 25 26  1  0
 25 27  2  0
  2 28  1  1
  3 29  1  6
  5 30  1  0
  8 31  1  6
 10 32  1  0
 12 33  1  0
 12 34  1  0
 13 35  1  0
 13 36  1  0
 15 37  1  0
 16 38  1  0
 16 39  1  0
 17 40  1  0
 17 41  1  0
 18 42  1  0
 18 43  1  0
 18 44  1  0
 19 45  1  0
 19 46  1  0
 19 47  1  0
 20 48  1  0
 20 49  1  0
 20 50  1  0
 23 51  1  0
 23 52  1  0
 24 53  1  0
 24 54  1  0
 26 55  1  0
M  END
>  <ALOGPS_LOGP>  (1) 
2.35

>  <ALOGPS_LOGS>  (1) 
-2.75

>  <ALOGPS_SOLUBILITY>  (1) 
6.78e-01 g/l

>  <DATABASE_ID>  (1) 
DB09274

>  <DATABASE_NAME>  (1) 
drugbank

>  <DRUGBANK_ID>  (1) 
DB09274

>  <DRUG_GROUPS>  (1) 
approved; investigational

>  <EXACT_MASS>  (1) 
384.178417862

>  <FORMULA>  (1) 
C19H28O8

>  <GENERIC_NAME>  (1) 
Artesunate

>  <INCHI_IDENTIFIER>  (1) 
InChI=1S/C19H28O8/c1-10-4-5-13-11(2)16(23-15(22)7-6-14(20)21)24-17-19(13)12(10)8-9-18(3,25-17)26-27-19/h10-13,16-17H,4-9H2,1-3H3,(H,20,21)/t10-,11-,12+,13+,16-,17-,18-,19-/m1/s1

>  <INCHI_KEY>  (1) 
FIHJKUPKCHIPAT-AHIGJZGOSA-N

>  <JCHEM_ACCEPTOR_COUNT>  (1) 
7

>  <JCHEM_ATOM_COUNT>  (1) 
55

>  <JCHEM_AVERAGE_POLARIZABILITY>  (1) 
39.46300362523707

>  <JCHEM_BIOAVAILABILITY>  (1) 
1

>  <JCHEM_DONOR_COUNT>  (1) 
1

>  <JCHEM_FORMAL_CHARGE>  (1) 
0

>  <JCHEM_GHOSE_FILTER>  (1) 
1

>  <JCHEM_IUPAC>  (1) 
4-oxo-4-{[(1R,4S,5R,8S,9R,10S,12R,13R)-1,5,9-trimethyl-11,14,15,16-tetraoxatetracyclo[10.3.1.0⁴,¹³.0⁸,¹³]hexadecan-10-yl]oxy}butanoic acid

>  <JCHEM_LOGP>  (1) 
3.104253674

>  <JCHEM_MDDR_LIKE_RULE>  (1) 
0

>  <JCHEM_NUMBER_OF_RINGS>  (1) 
4

>  <JCHEM_PHYSIOLOGICAL_CHARGE>  (1) 
-1

>  <JCHEM_PKA_STRONGEST_ACIDIC>  (1) 
3.768142988199547

>  <JCHEM_PKA_STRONGEST_BASIC>  (1) 
-4.177948164471451

>  <JCHEM_POLAR_SURFACE_AREA>  (1) 
100.52000000000001

>  <JCHEM_REFRACTIVITY>  (1) 
89.95409999999997

>  <JCHEM_ROTATABLE_BOND_COUNT>  (1) 
5

>  <JCHEM_RULE_OF_FIVE>  (1) 
1

>  <JCHEM_TRADITIONAL_IUPAC>  (1) 
artesunate

>  <JCHEM_VEBER_RULE>  (1) 
0

>  <MOLECULAR_WEIGHT>  (1) 
384.425

>  <SALTS>  (1) 
Artesunate sodium

>  <SMILES>  (1) 
[H][C@@]12CC[C@@H](C)[C@]3([H])CC[C@@]4(C)OO[C@@]13[C@]([H])(O[C@@H](OC(=O)CCC(O)=O)[C@@H]2C)O4

>  <SYNONYMS>  (1) 
artesunato; artesunatum; artesunic acid; AS; butanedioic acid, 1-[(3R,5aS,6R,8aS,9R,10S,12R,12aR)-decahydro-3,6,9-trimethyl-3,12-epoxy-12H-pyrano[4,3-j]-1,2-benzodioxepin-10-yl] ester; dihydroqinghasu hemsuccinate

$$$$
