
     RDKit          2D

 17 15  0  0  0  0  0  0  0  0999 V2000
   -0.9355   -0.2615    0.0000 C   0  0  0  0  0  0  0  0  0  0  0  0
   -0.2210   -0.6740    0.0000 O   0  0  0  0  0  0  0  0  0  0  0  0
   -1.6500   -0.6740    0.0000 P   0  0  0  0  0  0  0  0  0  0  0  0
   -2.3644   -1.0865    0.0000 O   0  0  0  0  0  0  0  0  0  0  0  0
   -1.2375   -1.3884    0.0000 O   0  0  0  0  0  0  0  0  0  0  0  0
   -2.0625    0.0404    0.0000 O   0  0  0  0  0  0  0  0  0  0  0  0
   -0.9355    0.5634    0.0000 P   0  0  0  0  0  0  0  0  0  0  0  0
   -0.9355    1.3884    0.0000 O   0  0  0  0  0  0  0  0  0  0  0  0
   -0.1105    0.5634    0.0000 O   0  0  0  0  0  0  0  0  0  0  0  0
   -1.7605    0.5634    0.0000 O   0  0  0  0  0  0  0  0  0  0  0  0
    2.3644   -0.0965    0.0000 Tc  0  0  0  0  0  0  0  0  0  0  0  0
    0.0000    0.0000    0.0000 H   0  0  0  0  0  0  0  0  0  0  0  0
    0.0000    0.0000    0.0000 H   0  0  0  0  0  0  0  0  0  0  0  0
    0.0000    0.0000    0.0000 H   0  0  0  0  0  0  0  0  0  0  0  0
    0.0000    0.0000    0.0000 H   0  0  0  0  0  0  0  0  0  0  0  0
    0.0000    0.0000    0.0000 H   0  0  0  0  0  0  0  0  0  0  0  0
    0.0000    0.0000    0.0000 H   0  0  0  0  0  0  0  0  0  0  0  0
  1  2  1  0
  1  3  1  0
  3  4  2  0
  3  5  1  0
  3  6  1  0
  1  7  1  0
  7  8  2  0
  7  9  1  0
  7 10  1  0
  1 12  1  0
  2 13  1  0
  5 14  1  0
  6 15  1  0
  9 16  1  0
 10 17  1  0
M  ISO  1  11  99
M  END
>  <ALOGPS_LOGP>  (1) 
-1.06

>  <ALOGPS_LOGS>  (1) 
-1.15

>  <ALOGPS_SOLUBILITY>  (1) 
1.35e+01 g/l

>  <DATABASE_ID>  (1) 
DB09139

>  <DATABASE_NAME>  (1) 
drugbank

>  <DRUGBANK_ID>  (1) 
DB09139

>  <DRUG_GROUPS>  (1) 
approved

>  <EXACT_MASS>  (1) 
290.865131083

>  <FORMULA>  (1) 
CH6O7P2Tc

>  <GENERIC_NAME>  (1) 
Technetium Tc-99m oxidronate

>  <INCHI_IDENTIFIER>  (1) 
InChI=1S/CH6O7P2.Tc/c2-1(9(3,4)5)10(6,7)8;/h1-2H,(H2,3,4,5)(H2,6,7,8);/i;1+2

>  <INCHI_KEY>  (1) 
SIJNDWFHVBDXDY-NLQOEHMXSA-N

>  <JCHEM_ACCEPTOR_COUNT>  (1) 
7

>  <JCHEM_ATOM_COUNT>  (1) 
17

>  <JCHEM_AVERAGE_POLARIZABILITY>  (1) 
11.942195679496702

>  <JCHEM_BIOAVAILABILITY>  (1) 
1

>  <JCHEM_DONOR_COUNT>  (1) 
5

>  <JCHEM_FORMAL_CHARGE>  (1) 
0

>  <JCHEM_GHOSE_FILTER>  (1) 
0

>  <JCHEM_IUPAC>  (1) 
[hydroxy(phosphono)methyl]phosphonic acid (⁹⁹Tc)technetium

>  <JCHEM_LOGP>  (1) 
-1.979410278666666

>  <JCHEM_MDDR_LIKE_RULE>  (1) 
0

>  <JCHEM_NUMBER_OF_RINGS>  (1) 
0

>  <JCHEM_PHYSIOLOGICAL_CHARGE>  (1) 
-3

>  <JCHEM_PKA>  (1) 
1.5095292388428883

>  <JCHEM_PKA_STRONGEST_ACIDIC>  (1) 
0.7481101897627993

>  <JCHEM_PKA_STRONGEST_BASIC>  (1) 
-5.033651536069862

>  <JCHEM_POLAR_SURFACE_AREA>  (1) 
135.29000000000002

>  <JCHEM_REFRACTIVITY>  (1) 
29.7229

>  <JCHEM_ROTATABLE_BOND_COUNT>  (1) 
2

>  <JCHEM_RULE_OF_FIVE>  (1) 
1

>  <JCHEM_TRADITIONAL_IUPAC>  (1) 
HMDP (⁹⁹Tc)technetium

>  <JCHEM_VEBER_RULE>  (1) 
0

>  <MOLECULAR_WEIGHT>  (1) 
290.906

>  <SMILES>  (1) 
[99Tc].OC(P(O)(O)=O)P(O)(O)=O

>  <SYNONYMS>  (1) 
99mtc-HDP; Oxidronic acid 99mtc-complex; Technetium (99mTc) oxidronate; Technetium 99mtc oxidronate; Technetium Tc 99m oxidronate; Technetium Tc-99m oxidronate kit

$$$$
