 
     RDKit          2D

 48 52  0  0  1  0  0  0  0  0999 V2000
   21.6997  -16.5816    0.0000 C   0  0  0  0  0  0  0  0  0  0  0  0
   22.4010  -16.9941    0.0000 N   0  0  0  0  0  0  0  0  0  0  0  0
   20.9985  -16.9941    0.0000 C   0  0  0  0  0  0  0  0  0  0  0  0
   21.6997  -15.7566    0.0000 C   0  0  0  0  0  0  0  0  0  0  0  0
   22.4010  -17.8192    0.0000 C   0  0  0  0  0  0  0  0  0  0  0  0
   23.1435  -16.5816    0.0000 C   0  0  0  0  0  0  0  0  0  0  0  0
   20.2559  -16.5816    0.0000 C   0  0  0  0  0  0  0  0  0  0  0  0
   22.4010  -15.3441    0.0000 C   0  0  0  0  0  0  0  0  0  0  0  0
   20.9985  -15.3441    0.0000 C   0  0  0  0  0  0  0  0  0  0  0  0
   22.8135  -18.5204    0.0000 C   0  0  0  0  0  0  0  0  0  0  0  0
   21.9885  -18.5204    0.0000 C   0  0  0  0  0  0  0  0  0  0  0  0
   23.1435  -15.7566    0.0000 C   0  0  0  0  0  0  0  0  0  0  0  0
   19.5960  -17.1179    0.0000 N   0  0  0  0  0  0  0  0  0  0  0  0
   20.2559  -15.7566    0.0000 C   0  0  0  0  0  0  0  0  0  0  0  0
   22.4010  -14.5603    0.0000 O   0  0  0  0  0  0  0  0  0  0  0  0
   23.8448  -15.3441    0.0000 C   0  0  0  0  0  0  0  0  0  0  0  0
   19.1009  -16.4578    0.0000 C   0  0  0  0  0  0  0  0  0  0  0  0
   19.1009  -17.7779    0.0000 C   0  0  0  0  0  0  0  0  0  0  0  0
   19.5546  -15.3441    0.0000 F   0  0  0  0  0  0  0  0  0  0  0  0
   24.5461  -15.7566    0.0000 O   0  0  0  0  0  0  0  0  0  0  0  0
   23.8448  -14.5603    0.0000 O   0  0  0  0  0  0  0  0  0  0  0  0
   18.3172  -16.7054    0.0000 C   0  0  0  0  0  0  0  0  0  0  0  0
   18.3172  -17.5304    0.0000 C   0  0  0  0  0  0  0  0  0  0  0  0
   17.5746  -16.2929    0.0000 O   0  0  0  0  0  0  0  0  0  0  0  0
   17.6159  -17.9429    0.0000 N   0  0  0  0  0  0  0  0  0  0  0  0
   16.8733  -16.7054    0.0000 C   0  0  0  0  0  0  0  0  0  0  0  0
   16.8733  -17.5304    0.0000 C   0  0  0  0  0  0  0  0  0  0  0  0
   21.0086  -17.8191    0.0000 C   0  0  0  0  0  0  0  0  0  0  0  0
   21.0086  -18.6441    0.0000 N   0  0  0  0  0  0  0  0  0  0  0  0
    0.0000    0.0000    0.0000 H   0  0  0  0  0  0  0  0  0  0  0  0
    0.0000    0.0000    0.0000 H   0  0  0  0  0  0  0  0  0  0  0  0
    0.0000    0.0000    0.0000 H   0  0  0  0  0  0  0  0  0  0  0  0
    0.0000    0.0000    0.0000 H   0  0  0  0  0  0  0  0  0  0  0  0
    0.0000    0.0000    0.0000 H   0  0  0  0  0  0  0  0  0  0  0  0
    0.0000    0.0000    0.0000 H   0  0  0  0  0  0  0  0  0  0  0  0
    0.0000    0.0000    0.0000 H   0  0  0  0  0  0  0  0  0  0  0  0
    0.0000    0.0000    0.0000 H   0  0  0  0  0  0  0  0  0  0  0  0
    0.0000    0.0000    0.0000 H   0  0  0  0  0  0  0  0  0  0  0  0
    0.0000    0.0000    0.0000 H   0  0  0  0  0  0  0  0  0  0  0  0
    0.0000    0.0000    0.0000 H   0  0  0  0  0  0  0  0  0  0  0  0
    0.0000    0.0000    0.0000 H   0  0  0  0  0  0  0  0  0  0  0  0
    0.0000    0.0000    0.0000 H   0  0  0  0  0  0  0  0  0  0  0  0
    0.0000    0.0000    0.0000 H   0  0  0  0  0  0  0  0  0  0  0  0
    0.0000    0.0000    0.0000 H   0  0  0  0  0  0  0  0  0  0  0  0
    0.0000    0.0000    0.0000 H   0  0  0  0  0  0  0  0  0  0  0  0
    0.0000    0.0000    0.0000 H   0  0  0  0  0  0  0  0  0  0  0  0
    0.0000    0.0000    0.0000 H   0  0  0  0  0  0  0  0  0  0  0  0
    0.0000    0.0000    0.0000 H   0  0  0  0  0  0  0  0  0  0  0  0
  1  2  1  0
  1  3  2  0
  1  4  1  0
  2  5  1  0
  2  6  1  0
  3  7  1  0
  4  8  1  0
  4  9  2  0
  5 10  1  0
  5 11  1  0
  6 12  2  0
  7 13  1  0
  7 14  2  0
  8 15  2  0
 12 16  1  0
 13 17  1  0
 13 18  1  0
 14 19  1  0
 16 20  1  0
 16 21  2  0
 17 22  1  0
 18 23  1  0
 22 24  1  0
 23 25  1  0
 24 26  1  0
 25 27  1  0
  8 12  1  0
  9 14  1  0
 10 11  1  0
 22 23  1  0
 26 27  1  0
  3 28  1  0
 28 29  3  0
  5 30  1  0
  6 31  1  0
  9 32  1  0
 10 33  1  0
 10 34  1  0
 11 35  1  0
 11 36  1  0
 17 37  1  0
 17 38  1  0
 18 39  1  0
 18 40  1  0
 20 41  1  0
 22 42  1  6
 23 43  1  1
 25 44  1  0
 26 45  1  0
 26 46  1  0
 27 47  1  0
 27 48  1  0
M  END
>  <ALOGPS_LOGP>  (1) 
-0.59

>  <ALOGPS_LOGS>  (1) 
-3.28

>  <ALOGPS_SOLUBILITY>  (1) 
2.08e-01 g/l

>  <DATABASE_ID>  (1) 
DB09047

>  <DATABASE_NAME>  (1) 
drugbank

>  <DRUGBANK_ID>  (1) 
DB09047

>  <DRUG_GROUPS>  (1) 
approved

>  <EXACT_MASS>  (1) 
398.139033271

>  <FORMULA>  (1) 
C20H19FN4O4

>  <GENERIC_NAME>  (1) 
Finafloxacin

>  <INCHI_IDENTIFIER>  (1) 
InChI=1S/C20H19FN4O4/c21-14-5-11-17(25(10-1-2-10)7-13(19(11)26)20(27)28)12(6-22)18(14)24-8-15-16(9-24)29-4-3-23-15/h5,7,10,15-16,23H,1-4,8-9H2,(H,27,28)/t15-,16-/m0/s1

>  <INCHI_KEY>  (1) 
FYMHQCNFKNMJAV-HOTGVXAUSA-N

>  <JCHEM_ACCEPTOR_COUNT>  (1) 
8

>  <JCHEM_ATOM_COUNT>  (1) 
48

>  <JCHEM_AVERAGE_POLARIZABILITY>  (1) 
39.74994819660739

>  <JCHEM_BIOAVAILABILITY>  (1) 
1

>  <JCHEM_DONOR_COUNT>  (1) 
2

>  <JCHEM_FORMAL_CHARGE>  (1) 
0

>  <JCHEM_GHOSE_FILTER>  (1) 
0

>  <JCHEM_IUPAC>  (1) 
7-[(4aS,7aS)-octahydropyrrolo[3,4-b]morpholin-6-yl]-8-cyano-1-cyclopropyl-6-fluoro-4-oxo-1,4-dihydroquinoline-3-carboxylic acid

>  <JCHEM_LOGP>  (1) 
-1.0753612003166761

>  <JCHEM_MDDR_LIKE_RULE>  (1) 
0

>  <JCHEM_NUMBER_OF_RINGS>  (1) 
5

>  <JCHEM_PHYSIOLOGICAL_CHARGE>  (1) 
0

>  <JCHEM_PKA_STRONGEST_ACIDIC>  (1) 
4.520373409118642

>  <JCHEM_PKA_STRONGEST_BASIC>  (1) 
7.539196803096164

>  <JCHEM_POLAR_SURFACE_AREA>  (1) 
105.9

>  <JCHEM_REFRACTIVITY>  (1) 
102.0759

>  <JCHEM_ROTATABLE_BOND_COUNT>  (1) 
3

>  <JCHEM_RULE_OF_FIVE>  (1) 
1

>  <JCHEM_TRADITIONAL_IUPAC>  (1) 
7-[(4aS,7aS)-hexahydro-2H-pyrrolo[3,4-b]morpholin-6-yl]-8-cyano-1-cyclopropyl-6-fluoro-4-oxoquinoline-3-carboxylic acid

>  <JCHEM_VEBER_RULE>  (1) 
0

>  <MOLECULAR_WEIGHT>  (1) 
398.394

>  <PRODUCTS>  (1) 
Xtoro

>  <SALTS>  (1) 
finafloxacin hydrochloride

>  <SMILES>  (1) 
[H][C@]12CN(C[C@]1([H])OCCN2)C1=C(F)C=C2C(=O)C(=CN(C3CC3)C2=C1C#N)C(O)=O

>  <SYNONYMS>  (1) 
8-Cyano-1-cyclopropyl-6-fluoro-7-[(4aS,7aS)-hexahydropyrrolo[3,4-b][1,4]oxazin-6(2H)-yl]-4-oxo-1,4-dihydro-3-quinolinecarboxylic acid; gastrochinolon; gastroquinolone

$$$$
