
     RDKit          2D

 50 44  0  0  0  0  0  0  0  0999 V2000
   -0.9428    1.7605    0.0000 K   0  0  0  0  0  0  0  0  0  0  0  0
    5.2296    1.7605    0.0000 K   0  0  0  0  0  0  0  0  0  0  0  0
   -3.4808   -2.3644    0.0000 K   0  0  0  0  0  0  0  0  0  0  0  0
   -2.2433   -2.3644    0.0000 Bi  0  0  0  0  0  0  0  0  0  0  0  0
   -5.2296   -0.7144    0.0000 O   0  0  0  0  0  0  0  0  0  0  0  0
   -4.5152   -0.3019    0.0000 C   0  0  0  0  0  0  0  0  0  0  0  0
   -3.8007   -0.7144    0.0000 O   0  0  0  0  0  0  0  0  0  0  0  0
   -4.5152    0.5230    0.0000 C   0  0  0  0  0  0  0  0  0  0  0  0
   -3.8007    0.9355    0.0000 C   0  0  0  0  0  0  0  0  0  0  0  0
   -3.3882    0.2210    0.0000 O   0  0  0  0  0  0  0  0  0  0  0  0
   -3.0862    1.3480    0.0000 C   0  0  0  0  0  0  0  0  0  0  0  0
   -2.3717    0.9355    0.0000 C   0  0  0  0  0  0  0  0  0  0  0  0
   -2.3717    0.1105    0.0000 O   0  0  0  0  0  0  0  0  0  0  0  0
   -1.6573    1.3480    0.0000 O   0  0  0  0  0  0  0  0  0  0  0  0
   -4.2132    1.6500    0.0000 C   0  0  0  0  0  0  0  0  0  0  0  0
   -3.8007    2.3644    0.0000 O   0  0  0  0  0  0  0  0  0  0  0  0
   -5.0382    1.6500    0.0000 O   0  0  0  0  0  0  0  0  0  0  0  0
    0.9428   -0.7144    0.0000 O   0  0  0  0  0  0  0  0  0  0  0  0
    1.6573   -0.3019    0.0000 C   0  0  0  0  0  0  0  0  0  0  0  0
    2.3717   -0.7144    0.0000 O   0  0  0  0  0  0  0  0  0  0  0  0
    1.6573    0.5230    0.0000 C   0  0  0  0  0  0  0  0  0  0  0  0
    2.3717    0.9355    0.0000 C   0  0  0  0  0  0  0  0  0  0  0  0
    2.7842    0.2210    0.0000 O   0  0  0  0  0  0  0  0  0  0  0  0
    3.0862    1.3480    0.0000 C   0  0  0  0  0  0  0  0  0  0  0  0
    3.8007    0.9355    0.0000 C   0  0  0  0  0  0  0  0  0  0  0  0
    3.8007    0.1105    0.0000 O   0  0  0  0  0  0  0  0  0  0  0  0
    4.5152    1.3480    0.0000 O   0  0  0  0  0  0  0  0  0  0  0  0
    1.9592    1.6500    0.0000 C   0  0  0  0  0  0  0  0  0  0  0  0
    2.3717    2.3644    0.0000 O   0  0  0  0  0  0  0  0  0  0  0  0
    1.1342    1.6500    0.0000 O   0  0  0  0  0  0  0  0  0  0  0  0
    0.0000    0.0000    0.0000 H   0  0  0  0  0  0  0  0  0  0  0  0
    0.0000    0.0000    0.0000 H   0  0  0  0  0  0  0  0  0  0  0  0
    0.0000    0.0000    0.0000 H   0  0  0  0  0  0  0  0  0  0  0  0
    0.0000    0.0000    0.0000 H   0  0  0  0  0  0  0  0  0  0  0  0
    0.0000    0.0000    0.0000 H   0  0  0  0  0  0  0  0  0  0  0  0
    0.0000    0.0000    0.0000 H   0  0  0  0  0  0  0  0  0  0  0  0
    0.0000    0.0000    0.0000 H   0  0  0  0  0  0  0  0  0  0  0  0
    0.0000    0.0000    0.0000 H   0  0  0  0  0  0  0  0  0  0  0  0
    0.0000    0.0000    0.0000 H   0  0  0  0  0  0  0  0  0  0  0  0
    0.0000    0.0000    0.0000 H   0  0  0  0  0  0  0  0  0  0  0  0
    0.0000    0.0000    0.0000 H   0  0  0  0  0  0  0  0  0  0  0  0
    0.0000    0.0000    0.0000 H   0  0  0  0  0  0  0  0  0  0  0  0
    0.0000    0.0000    0.0000 H   0  0  0  0  0  0  0  0  0  0  0  0
    0.0000    0.0000    0.0000 H   0  0  0  0  0  0  0  0  0  0  0  0
    0.0000    0.0000    0.0000 H   0  0  0  0  0  0  0  0  0  0  0  0
    0.0000    0.0000    0.0000 H   0  0  0  0  0  0  0  0  0  0  0  0
    0.0000    0.0000    0.0000 H   0  0  0  0  0  0  0  0  0  0  0  0
    0.0000    0.0000    0.0000 H   0  0  0  0  0  0  0  0  0  0  0  0
    0.0000    0.0000    0.0000 H   0  0  0  0  0  0  0  0  0  0  0  0
    0.0000    0.0000    0.0000 H   0  0  0  0  0  0  0  0  0  0  0  0
  5  6  1  0
  6  7  2  0
  6  8  1  0
  8  9  1  0
  9 10  1  0
  9 11  1  0
 11 12  1  0
 12 13  2  0
 12 14  1  0
  9 15  1  0
 15 16  2  0
 15 17  1  0
 18 19  1  0
 19 20  2  0
 19 21  1  0
 21 22  1  0
 22 23  1  0
 22 24  1  0
 24 25  1  0
 25 26  2  0
 25 27  1  0
 22 28  1  0
 28 29  2  0
 28 30  1  0
  4 31  1  0
  4 32  1  0
  4 33  1  0
  4 34  1  0
  4 35  1  0
  4 36  1  0
  5 37  1  0
  8 38  1  0
  8 39  1  0
 10 40  1  0
 11 41  1  0
 11 42  1  0
 17 43  1  0
 18 44  1  0
 21 45  1  0
 21 46  1  0
 23 47  1  0
 24 48  1  0
 24 49  1  0
 30 50  1  0
M  CHG  6   1   1   2   1   3   1   4   3  14  -1  27  -1
M  END
>  <ALOGPS_LOGP>  (1) 
-1.28

>  <ALOGPS_LOGS>  (1) 
-0.01

>  <ALOGPS_SOLUBILITY>  (1) 
2.26e+02 g/l

>  <DATABASE_ID>  (1) 
DB09275

>  <DATABASE_NAME>  (1) 
drugbank

>  <DRUGBANK_ID>  (1) 
DB09275

>  <DRUG_GROUPS>  (1) 
approved

>  <EXACT_MASS>  (1) 
707.90768

>  <FORMULA>  (1) 
C12H14BiK3O14

>  <GENERIC_NAME>  (1) 
Bismuth Subcitrate

>  <INCHI_IDENTIFIER>  (1) 
InChI=1S/2C6H8O7.Bi.3K/c2*7-3(8)1-6(13,5(11)12)2-4(9)10;;;;/h2*13H,1-2H2,(H,7,8)(H,9,10)(H,11,12);;;;/q;;+3;3*+1/p-2

>  <INCHI_KEY>  (1) 
ZQUAVILLCXTKTF-UHFFFAOYSA-L

>  <JCHEM_ACCEPTOR_COUNT>  (1) 
7

>  <JCHEM_ATOM_COUNT>  (1) 
44

>  <JCHEM_AVERAGE_POLARIZABILITY>  (1) 
15.08840227809612

>  <JCHEM_BIOAVAILABILITY>  (1) 
1

>  <JCHEM_DONOR_COUNT>  (1) 
3

>  <JCHEM_FORMAL_CHARGE>  (1) 
4

>  <JCHEM_GHOSE_FILTER>  (1) 
0

>  <JCHEM_IUPAC>  (1) 
bismuth(3+) ion tripotassium bis(3,4-dicarboxy-3-hydroxybutanoate)

>  <JCHEM_LOGP>  (1) 
-1.3226874519999998

>  <JCHEM_MDDR_LIKE_RULE>  (1) 
0

>  <JCHEM_NUMBER_OF_RINGS>  (1) 
0

>  <JCHEM_PHYSIOLOGICAL_CHARGE>  (1) 
-3

>  <JCHEM_PKA>  (1) 
4.674836176324001

>  <JCHEM_PKA_STRONGEST_ACIDIC>  (1) 
3.047951513168072

>  <JCHEM_PKA_STRONGEST_BASIC>  (1) 
-4.185693450231931

>  <JCHEM_POLAR_SURFACE_AREA>  (1) 
134.95999999999998

>  <JCHEM_REFRACTIVITY>  (1) 
46.461000000000006

>  <JCHEM_ROTATABLE_BOND_COUNT>  (1) 
10

>  <JCHEM_RULE_OF_FIVE>  (1) 
0

>  <JCHEM_TRADITIONAL_IUPAC>  (1) 
bismuth(3+) ion tripotassium bis(3,4-dicarboxy-3-hydroxybutanoate)

>  <JCHEM_VEBER_RULE>  (1) 
0

>  <MOLECULAR_WEIGHT>  (1) 
708.503

>  <PRODUCTS>  (1) 
Pylera

>  <SALTS>  (1) 
Bismuth subcitrate potassium; Bismuth subcitrate potassium monohydrate

>  <SMILES>  (1) 
[K+].[K+].[K+].[Bi+3].OC(=O)CC(O)(CC([O-])=O)C(O)=O.OC(=O)CC(O)(CC([O-])=O)C(O)=O

>  <SYNONYMS>  (1) 
Bismuth tripotassium dicitrate; Tripotassium dicitratobismuthate

$$$$
