
     RDKit          2D

  3  0  0  0  0  0  0  0  0  0999 V2000
    1.1875   -0.0062    0.0000 Cl  0  0  0  0  0  0  0  0  0  0  0  0
    0.0625    0.0062    0.0000 Sr  0  0  0  0  0  0  0  0  0  0  0  0
   -1.1873   -0.0062    0.0000 Cl  0  0  0  0  0  0  0  0  0  0  0  0
M  CHG  3   1  -1   2   2   3  -1
M  END
>  <ALOGPS_LOGP>  (1) 
0.84

>  <ALOGPS_LOGS>  (1) 
-0.49

>  <ALOGPS_SOLUBILITY>  (1) 
5.18e+01 g/l

>  <DATABASE_ID>  (1) 
DB09498

>  <DATABASE_NAME>  (1) 
drugbank

>  <DRUGBANK_ID>  (1) 
DB09498

>  <DRUG_GROUPS>  (1) 
approved

>  <EXACT_MASS>  (1) 
157.843318

>  <FORMULA>  (1) 
Cl2Sr

>  <GENERIC_NAME>  (1) 
Strontium chloride Sr-89

>  <INCHI_IDENTIFIER>  (1) 
InChI=1S/2ClH.Sr/h2*1H;/q;;+2/p-2

>  <INCHI_KEY>  (1) 
AHBGXTDRMVNFER-UHFFFAOYSA-L

>  <INTERNATIONAL_BRANDS>  (1) 
Metastron

>  <JCHEM_ACCEPTOR_COUNT>  (1) 
0

>  <JCHEM_ATOM_COUNT>  (1) 
3

>  <JCHEM_AVERAGE_POLARIZABILITY>  (1) 
2.3881688999999993

>  <JCHEM_BIOAVAILABILITY>  (1) 
1

>  <JCHEM_DONOR_COUNT>  (1) 
0

>  <JCHEM_FORMAL_CHARGE>  (1) 
0

>  <JCHEM_GHOSE_FILTER>  (1) 
0

>  <JCHEM_IUPAC>  (1) 
strontium(2+) dichloride

>  <JCHEM_LOGP>  (1) 
0.6123387216666667

>  <JCHEM_MDDR_LIKE_RULE>  (1) 
0

>  <JCHEM_NUMBER_OF_RINGS>  (1) 
0

>  <JCHEM_PHYSIOLOGICAL_CHARGE>  (1) 
-1

>  <JCHEM_PKA_STRONGEST_ACIDIC>  (1) 
-7.000000000000001

>  <JCHEM_POLAR_SURFACE_AREA>  (1) 
0.0

>  <JCHEM_REFRACTIVITY>  (1) 
5.6156

>  <JCHEM_ROTATABLE_BOND_COUNT>  (1) 
0

>  <JCHEM_RULE_OF_FIVE>  (1) 
1

>  <JCHEM_TRADITIONAL_IUPAC>  (1) 
SrCl2

>  <JCHEM_VEBER_RULE>  (1) 
1

>  <MOLECULAR_WEIGHT>  (1) 
158.52

>  <PRODUCTS>  (1) 
Metastron; STRONTIUM CHLORIDE Sr-89

>  <SECONDARY_ACCESSION_NUMBERS>  (1) 
DB12546

>  <SMILES>  (1) 
[Cl-].[Cl-].[Sr++]

>  <SYNONYMS>  (1) 
Strontium (89Sr) chloride; Strontium chloride Sr 89; strontium chloride, 89Sr-labeled; Strontium chloride, Sr-89; Strontium-89 chloride

$$$$
