
     RDKit          2D

 58 61  0  0  0  0  0  0  0  0999 V2000
    4.4761   -5.0923    0.0000 O   0  0  0  0  0  0  0  0  0  0  0  0
    3.8039   -4.6034    0.0000 C   0  0  0  0  0  0  0  0  0  0  0  0
    3.8039   -3.7784    0.0000 N   0  0  0  0  0  0  0  0  0  0  0  0
    3.0197   -4.8580    0.0000 S   0  0  0  0  0  0  0  0  0  0  0  0
    2.5308   -4.1960    0.0000 C   0  0  0  0  0  0  0  0  0  0  0  0
    1.7059   -4.1960    0.0000 C   0  0  0  0  0  0  0  0  0  0  0  0
    1.2985   -3.4832    0.0000 C   0  0  0  0  0  0  0  0  0  0  0  0
    1.7059   -2.7702    0.0000 C   0  0  0  0  0  0  0  0  0  0  0  0
    1.2985   -2.0471    0.0000 C   0  0  0  0  0  0  0  0  0  0  0  0
    0.4735   -2.0471    0.0000 C   0  0  0  0  0  0  0  0  0  0  0  0
    0.0560   -1.3342    0.0000 O   0  0  0  0  0  0  0  0  0  0  0  0
   -0.7689   -1.3342    0.0000 C   0  0  0  0  0  0  0  0  0  0  0  0
   -1.1763   -0.6212    0.0000 C   0  0  0  0  0  0  0  0  0  0  0  0
   -2.0012   -0.6212    0.0000 N   0  0  0  0  0  0  0  0  0  0  0  0
   -2.4188    0.0916    0.0000 C   0  0  0  0  0  0  0  0  0  0  0  0
   -2.0012    0.8045    0.0000 C   0  0  0  0  0  0  0  0  0  0  0  0
   -2.4188    1.5175    0.0000 C   0  0  0  0  0  0  0  0  0  0  0  0
   -2.0012    2.2304    0.0000 O   0  0  0  0  0  0  0  0  0  0  0  0
   -2.4188    2.9535    0.0000 C   0  0  0  0  0  0  0  0  0  0  0  0
   -2.0012    3.6664    0.0000 C   0  0  0  0  0  0  0  0  0  0  0  0
   -2.4188    4.3794    0.0000 C   0  0  0  0  0  0  0  0  0  0  0  0
   -3.2438    4.3794    0.0000 C   0  0  0  0  0  0  0  0  0  0  0  0
   -3.6511    5.0923    0.0000 O   0  0  0  0  0  0  0  0  0  0  0  0
   -4.4761    5.0923    0.0000 C   0  0  0  0  0  0  0  0  0  0  0  0
   -3.6511    3.6664    0.0000 C   0  0  0  0  0  0  0  0  0  0  0  0
   -3.2438    2.9535    0.0000 C   0  0  0  0  0  0  0  0  0  0  0  0
   -3.2438    1.5175    0.0000 N   0  0  0  0  0  0  0  0  0  0  0  0
   -3.6511    0.8045    0.0000 C   0  0  0  0  0  0  0  0  0  0  0  0
   -3.2438    0.0916    0.0000 N   0  0  0  0  0  0  0  0  0  0  0  0
   -2.4188   -1.3342    0.0000 C   0  0  0  0  0  0  0  0  0  0  0  0
    0.0560   -2.7702    0.0000 C   0  0  0  0  0  0  0  0  0  0  0  0
    0.4735   -3.4832    0.0000 C   0  0  0  0  0  0  0  0  0  0  0  0
    3.0197   -3.5239    0.0000 C   0  0  0  0  0  0  0  0  0  0  0  0
    2.7650   -2.7397    0.0000 O   0  0  0  0  0  0  0  0  0  0  0  0
    0.0000    0.0000    0.0000 H   0  0  0  0  0  0  0  0  0  0  0  0
    0.0000    0.0000    0.0000 H   0  0  0  0  0  0  0  0  0  0  0  0
    0.0000    0.0000    0.0000 H   0  0  0  0  0  0  0  0  0  0  0  0
    0.0000    0.0000    0.0000 H   0  0  0  0  0  0  0  0  0  0  0  0
    0.0000    0.0000    0.0000 H   0  0  0  0  0  0  0  0  0  0  0  0
    0.0000    0.0000    0.0000 H   0  0  0  0  0  0  0  0  0  0  0  0
    0.0000    0.0000    0.0000 H   0  0  0  0  0  0  0  0  0  0  0  0
    0.0000    0.0000    0.0000 H   0  0  0  0  0  0  0  0  0  0  0  0
    0.0000    0.0000    0.0000 H   0  0  0  0  0  0  0  0  0  0  0  0
    0.0000    0.0000    0.0000 H   0  0  0  0  0  0  0  0  0  0  0  0
    0.0000    0.0000    0.0000 H   0  0  0  0  0  0  0  0  0  0  0  0
    0.0000    0.0000    0.0000 H   0  0  0  0  0  0  0  0  0  0  0  0
    0.0000    0.0000    0.0000 H   0  0  0  0  0  0  0  0  0  0  0  0
    0.0000    0.0000    0.0000 H   0  0  0  0  0  0  0  0  0  0  0  0
    0.0000    0.0000    0.0000 H   0  0  0  0  0  0  0  0  0  0  0  0
    0.0000    0.0000    0.0000 H   0  0  0  0  0  0  0  0  0  0  0  0
    0.0000    0.0000    0.0000 H   0  0  0  0  0  0  0  0  0  0  0  0
    0.0000    0.0000    0.0000 H   0  0  0  0  0  0  0  0  0  0  0  0
    0.0000    0.0000    0.0000 H   0  0  0  0  0  0  0  0  0  0  0  0
    0.0000    0.0000    0.0000 H   0  0  0  0  0  0  0  0  0  0  0  0
    0.0000    0.0000    0.0000 H   0  0  0  0  0  0  0  0  0  0  0  0
    0.0000    0.0000    0.0000 H   0  0  0  0  0  0  0  0  0  0  0  0
    0.0000    0.0000    0.0000 H   0  0  0  0  0  0  0  0  0  0  0  0
    0.0000    0.0000    0.0000 H   0  0  0  0  0  0  0  0  0  0  0  0
  1  2  2  0
  2  3  1  0
  2  4  1  0
  3 33  1  0
  4  5  1  0
  5  6  1  0
  5 33  1  0
  6  7  1  0
  7  8  2  0
  7 32  1  0
  8  9  1  0
  9 10  2  0
 10 11  1  0
 10 31  1  0
 11 12  1  0
 12 13  1  0
 13 14  1  0
 14 15  1  0
 14 30  1  0
 15 16  2  0
 15 29  1  0
 16 17  1  0
 17 18  1  0
 17 27  2  0
 18 19  1  0
 19 20  2  0
 19 26  1  0
 20 21  1  0
 21 22  2  0
 22 23  1  0
 22 25  1  0
 23 24  1  0
 25 26  2  0
 27 28  1  0
 28 29  2  0
 31 32  2  0
 33 34  2  0
  3 35  1  0
  5 36  1  0
  6 37  1  0
  6 38  1  0
  8 39  1  0
  9 40  1  0
 12 41  1  0
 12 42  1  0
 13 43  1  0
 13 44  1  0
 16 45  1  0
 20 46  1  0
 21 47  1  0
 24 48  1  0
 24 49  1  0
 24 50  1  0
 25 51  1  0
 26 52  1  0
 28 53  1  0
 30 54  1  0
 30 55  1  0
 30 56  1  0
 31 57  1  0
 32 58  1  0
M  END
>  <ALOGPS_LOGP>  (1) 
3.84

>  <ALOGPS_LOGS>  (1) 
-4.42

>  <ALOGPS_SOLUBILITY>  (1) 
1.81e-02 g/l

>  <DATABASE_ID>  (1) 
DB09198

>  <DATABASE_NAME>  (1) 
drugbank

>  <DRUGBANK_ID>  (1) 
DB09198

>  <DRUG_GROUPS>  (1) 
approved; investigational

>  <EXACT_MASS>  (1) 
480.146741063

>  <FORMULA>  (1) 
C24H24N4O5S

>  <GENERIC_NAME>  (1) 
Lobeglitazone

>  <INCHI_IDENTIFIER>  (1) 
InChI=1S/C24H24N4O5S/c1-28(21-14-22(26-15-25-21)33-19-9-7-17(31-2)8-10-19)11-12-32-18-5-3-16(4-6-18)13-20-23(29)27-24(30)34-20/h3-10,14-15,20H,11-13H2,1-2H3,(H,27,29,30)

>  <INCHI_KEY>  (1) 
CHHXEZSCHQVSRE-UHFFFAOYSA-N

>  <INTERNATIONAL_BRANDS>  (1) 
Duvie

>  <JCHEM_ACCEPTOR_COUNT>  (1) 
7

>  <JCHEM_ATOM_COUNT>  (1) 
58

>  <JCHEM_AVERAGE_POLARIZABILITY>  (1) 
49.644421040245135

>  <JCHEM_BIOAVAILABILITY>  (1) 
1

>  <JCHEM_DONOR_COUNT>  (1) 
1

>  <JCHEM_FORMAL_CHARGE>  (1) 
0

>  <JCHEM_GHOSE_FILTER>  (1) 
0

>  <JCHEM_IUPAC>  (1) 
5-{[4-(2-{[6-(4-methoxyphenoxy)pyrimidin-4-yl](methyl)amino}ethoxy)phenyl]methyl}-1,3-thiazolidine-2,4-dione

>  <JCHEM_LOGP>  (1) 
4.307440443333335

>  <JCHEM_MDDR_LIKE_RULE>  (1) 
1

>  <JCHEM_NUMBER_OF_RINGS>  (1) 
4

>  <JCHEM_PHYSIOLOGICAL_CHARGE>  (1) 
0

>  <JCHEM_PKA>  (1) 
16.67155575819185

>  <JCHEM_PKA_STRONGEST_ACIDIC>  (1) 
7.6136838544401

>  <JCHEM_PKA_STRONGEST_BASIC>  (1) 
3.9645510549608347

>  <JCHEM_POLAR_SURFACE_AREA>  (1) 
102.88

>  <JCHEM_REFRACTIVITY>  (1) 
129.62860000000006

>  <JCHEM_ROTATABLE_BOND_COUNT>  (1) 
10

>  <JCHEM_RULE_OF_FIVE>  (1) 
1

>  <JCHEM_TRADITIONAL_IUPAC>  (1) 
5-{[4-(2-{[6-(4-methoxyphenoxy)pyrimidin-4-yl](methyl)amino}ethoxy)phenyl]methyl}-1,3-thiazolidine-2,4-dione

>  <JCHEM_VEBER_RULE>  (1) 
0

>  <MOLECULAR_WEIGHT>  (1) 
480.54

>  <SALTS>  (1) 
lobeglitazone sulfate

>  <SMILES>  (1) 
COC1=CC=C(OC2=NC=NC(=C2)N(C)CCOC2=CC=C(CC3SC(=O)NC3=O)C=C2)C=C1

$$$$
