
     RDKit          2D

255253  0  0  0  0  0  0  0  0999 V2000
   -6.7051    5.4262    0.0000 O   0  0  0  0  0  0  0  0  0  0  0  0
   -3.4051    5.4262    0.0000 O   0  0  0  0  0  0  0  0  0  0  0  0
   -1.0480    5.4262    0.0000 O   0  0  0  0  0  0  0  0  0  0  0  0
   -4.2598    2.3381    0.0000 Na  0  0  0  0  0  0  0  0  0  0  0  0
   -7.5301    5.4262    0.0000 Fe  0  0  0  0  0  0  0  0  0  0  0  0
   -4.2301    5.4262    0.0000 Fe  0  0  0  0  0  0  0  0  0  0  0  0
   -9.9755    1.5131    0.0000 O   0  0  0  0  0  0  0  0  0  0  0  0
   -9.2611    1.9256    0.0000 C   0  0  0  0  0  0  0  0  0  0  0  0
   -8.5466    1.5131    0.0000 C   0  0  0  0  0  0  0  0  0  0  0  0
   -8.5466    0.6881    0.0000 O   0  0  0  0  0  0  0  0  0  0  0  0
   -7.8321    1.9256    0.0000 C   0  0  0  0  0  0  0  0  0  0  0  0
   -7.8321    2.7506    0.0000 O   0  0  0  0  0  0  0  0  0  0  0  0
   -7.1176    1.5131    0.0000 C   0  0  0  0  0  0  0  0  0  0  0  0
   -7.1176    0.6881    0.0000 O   0  0  0  0  0  0  0  0  0  0  0  0
   -6.4032    1.9256    0.0000 C   0  0  0  0  0  0  0  0  0  0  0  0
   -6.4032    2.7506    0.0000 O   0  0  0  0  0  0  0  0  0  0  0  0
   -5.6887    1.5131    0.0000 C   0  0  0  0  0  0  0  0  0  0  0  0
   -5.6887    0.6881    0.0000 O   0  0  0  0  0  0  0  0  0  0  0  0
   -4.9742    1.9256    0.0000 O   0  0  0  0  0  0  0  0  0  0  0  0
    2.5607    0.4662    0.0000 O   0  0  0  0  0  0  0  0  0  0  0  0
    1.7538    0.6377    0.0000 C   0  0  0  0  0  0  0  0  0  0  0  0
    1.4988    1.4224    0.0000 C   0  0  0  0  0  0  0  0  0  0  0  0
    0.6919    1.5939    0.0000 O   0  0  0  0  0  0  0  0  0  0  0  0
    0.4369    2.3785    0.0000 C   0  0  0  0  0  0  0  0  0  0  0  0
   -0.3700    2.5500    0.0000 O   0  0  0  0  0  0  0  0  0  0  0  0
   -0.9220    1.9369    0.0000 C   0  0  0  0  0  0  0  0  0  0  0  0
   -1.4740    2.5500    0.0000 C   0  0  0  0  0  0  0  0  0  0  0  0
   -2.2810    2.3785    0.0000 O   0  0  0  0  0  0  0  0  0  0  0  0
   -0.2545    1.4520    0.0000 O   0  0  0  0  0  0  0  0  0  0  0  0
   -0.5095    0.6674    0.0000 C   0  0  0  0  0  0  0  0  0  0  0  0
   -0.0246    0.0000    0.0000 C   0  0  0  0  0  0  0  0  0  0  0  0
    0.7958    0.0862    0.0000 O   0  0  0  0  0  0  0  0  0  0  0  0
   -1.3345    0.6674    0.0000 C   0  0  0  0  0  0  0  0  0  0  0  0
   -1.8194    0.0000    0.0000 O   0  0  0  0  0  0  0  0  0  0  0  0
   -1.5894    1.4520    0.0000 C   0  0  0  0  0  0  0  0  0  0  0  0
   -2.3740    1.7069    0.0000 O   0  0  0  0  0  0  0  0  0  0  0  0
    0.9890    2.9916    0.0000 C   0  0  0  0  0  0  0  0  0  0  0  0
    0.7340    3.7762    0.0000 O   0  0  0  0  0  0  0  0  0  0  0  0
    1.7959    2.8201    0.0000 C   0  0  0  0  0  0  0  0  0  0  0  0
    2.3480    3.4332    0.0000 O   0  0  0  0  0  0  0  0  0  0  0  0
    2.0509    2.0354    0.0000 C   0  0  0  0  0  0  0  0  0  0  0  0
    2.8578    1.8639    0.0000 O   0  0  0  0  0  0  0  0  0  0  0  0
    9.6784    0.4662    0.0000 O   0  0  0  0  0  0  0  0  0  0  0  0
    8.8715    0.6377    0.0000 C   0  0  0  0  0  0  0  0  0  0  0  0
    8.6165    1.4224    0.0000 C   0  0  0  0  0  0  0  0  0  0  0  0
    7.8096    1.5939    0.0000 O   0  0  0  0  0  0  0  0  0  0  0  0
    7.5546    2.3785    0.0000 C   0  0  0  0  0  0  0  0  0  0  0  0
    6.7476    2.5500    0.0000 O   0  0  0  0  0  0  0  0  0  0  0  0
    6.1956    1.9369    0.0000 C   0  0  0  0  0  0  0  0  0  0  0  0
    5.6436    2.5500    0.0000 C   0  0  0  0  0  0  0  0  0  0  0  0
    4.8366    2.3785    0.0000 O   0  0  0  0  0  0  0  0  0  0  0  0
    6.8630    1.4520    0.0000 O   0  0  0  0  0  0  0  0  0  0  0  0
    6.6081    0.6674    0.0000 C   0  0  0  0  0  0  0  0  0  0  0  0
    7.0930    0.0000    0.0000 C   0  0  0  0  0  0  0  0  0  0  0  0
    7.9135    0.0862    0.0000 O   0  0  0  0  0  0  0  0  0  0  0  0
    5.7831    0.6674    0.0000 C   0  0  0  0  0  0  0  0  0  0  0  0
    5.2982    0.0000    0.0000 O   0  0  0  0  0  0  0  0  0  0  0  0
    5.5282    1.4520    0.0000 C   0  0  0  0  0  0  0  0  0  0  0  0
    4.7435    1.7069    0.0000 O   0  0  0  0  0  0  0  0  0  0  0  0
    8.1066    2.9916    0.0000 C   0  0  0  0  0  0  0  0  0  0  0  0
    7.8517    3.7762    0.0000 O   0  0  0  0  0  0  0  0  0  0  0  0
    8.9136    2.8201    0.0000 C   0  0  0  0  0  0  0  0  0  0  0  0
    9.4657    3.4332    0.0000 O   0  0  0  0  0  0  0  0  0  0  0  0
    9.1686    2.0354    0.0000 C   0  0  0  0  0  0  0  0  0  0  0  0
    9.9755    1.8639    0.0000 O   0  0  0  0  0  0  0  0  0  0  0  0
   -4.7986   -4.9600    0.0000 O   0  0  0  0  0  0  0  0  0  0  0  0
   -5.6056   -4.7884    0.0000 C   0  0  0  0  0  0  0  0  0  0  0  0
   -5.8605   -4.0038    0.0000 C   0  0  0  0  0  0  0  0  0  0  0  0
   -6.6675   -3.8323    0.0000 O   0  0  0  0  0  0  0  0  0  0  0  0
   -6.9224   -3.0477    0.0000 C   0  0  0  0  0  0  0  0  0  0  0  0
   -7.7294   -2.8761    0.0000 O   0  0  0  0  0  0  0  0  0  0  0  0
   -8.2814   -3.4892    0.0000 C   0  0  0  0  0  0  0  0  0  0  0  0
   -8.8335   -2.8761    0.0000 C   0  0  0  0  0  0  0  0  0  0  0  0
   -9.6405   -3.0477    0.0000 O   0  0  0  0  0  0  0  0  0  0  0  0
   -7.6140   -3.9742    0.0000 O   0  0  0  0  0  0  0  0  0  0  0  0
   -7.8689   -4.7588    0.0000 C   0  0  0  0  0  0  0  0  0  0  0  0
   -7.3840   -5.4262    0.0000 C   0  0  0  0  0  0  0  0  0  0  0  0
   -6.5635   -5.3400    0.0000 O   0  0  0  0  0  0  0  0  0  0  0  0
   -8.6939   -4.7588    0.0000 C   0  0  0  0  0  0  0  0  0  0  0  0
   -9.1789   -5.4262    0.0000 O   0  0  0  0  0  0  0  0  0  0  0  0
   -8.9489   -3.9742    0.0000 C   0  0  0  0  0  0  0  0  0  0  0  0
   -9.7335   -3.7192    0.0000 O   0  0  0  0  0  0  0  0  0  0  0  0
   -6.3704   -2.4346    0.0000 C   0  0  0  0  0  0  0  0  0  0  0  0
   -6.6253   -1.6500    0.0000 O   0  0  0  0  0  0  0  0  0  0  0  0
   -5.5634   -2.6061    0.0000 C   0  0  0  0  0  0  0  0  0  0  0  0
   -5.0114   -1.9930    0.0000 O   0  0  0  0  0  0  0  0  0  0  0  0
   -5.3085   -3.3907    0.0000 C   0  0  0  0  0  0  0  0  0  0  0  0
   -4.5015   -3.5622    0.0000 O   0  0  0  0  0  0  0  0  0  0  0  0
    2.3190   -4.9600    0.0000 O   0  0  0  0  0  0  0  0  0  0  0  0
    1.5120   -4.7884    0.0000 C   0  0  0  0  0  0  0  0  0  0  0  0
    1.2571   -4.0038    0.0000 C   0  0  0  0  0  0  0  0  0  0  0  0
    0.4501   -3.8323    0.0000 O   0  0  0  0  0  0  0  0  0  0  0  0
    0.1952   -3.0477    0.0000 C   0  0  0  0  0  0  0  0  0  0  0  0
   -0.6117   -2.8761    0.0000 O   0  0  0  0  0  0  0  0  0  0  0  0
   -1.1638   -3.4892    0.0000 C   0  0  0  0  0  0  0  0  0  0  0  0
   -1.7158   -2.8761    0.0000 C   0  0  0  0  0  0  0  0  0  0  0  0
   -2.5228   -3.0477    0.0000 O   0  0  0  0  0  0  0  0  0  0  0  0
   -0.4963   -3.9742    0.0000 O   0  0  0  0  0  0  0  0  0  0  0  0
   -0.7513   -4.7588    0.0000 C   0  0  0  0  0  0  0  0  0  0  0  0
   -0.2663   -5.4262    0.0000 C   0  0  0  0  0  0  0  0  0  0  0  0
    0.5541   -5.3400    0.0000 O   0  0  0  0  0  0  0  0  0  0  0  0
   -1.5763   -4.7588    0.0000 C   0  0  0  0  0  0  0  0  0  0  0  0
   -2.0612   -5.4262    0.0000 O   0  0  0  0  0  0  0  0  0  0  0  0
   -1.8312   -3.9742    0.0000 C   0  0  0  0  0  0  0  0  0  0  0  0
   -2.6158   -3.7192    0.0000 O   0  0  0  0  0  0  0  0  0  0  0  0
    0.7472   -2.4346    0.0000 C   0  0  0  0  0  0  0  0  0  0  0  0
    0.4922   -1.6500    0.0000 O   0  0  0  0  0  0  0  0  0  0  0  0
    1.5542   -2.6061    0.0000 C   0  0  0  0  0  0  0  0  0  0  0  0
    2.1062   -1.9930    0.0000 O   0  0  0  0  0  0  0  0  0  0  0  0
    1.8091   -3.3907    0.0000 C   0  0  0  0  0  0  0  0  0  0  0  0
    2.6161   -3.5622    0.0000 O   0  0  0  0  0  0  0  0  0  0  0  0
    9.4367   -4.9600    0.0000 O   0  0  0  0  0  0  0  0  0  0  0  0
    8.6297   -4.7884    0.0000 C   0  0  0  0  0  0  0  0  0  0  0  0
    8.3748   -4.0038    0.0000 C   0  0  0  0  0  0  0  0  0  0  0  0
    7.5678   -3.8323    0.0000 O   0  0  0  0  0  0  0  0  0  0  0  0
    7.3128   -3.0477    0.0000 C   0  0  0  0  0  0  0  0  0  0  0  0
    6.5059   -2.8761    0.0000 O   0  0  0  0  0  0  0  0  0  0  0  0
    5.9538   -3.4892    0.0000 C   0  0  0  0  0  0  0  0  0  0  0  0
    5.4018   -2.8761    0.0000 C   0  0  0  0  0  0  0  0  0  0  0  0
    4.5948   -3.0477    0.0000 O   0  0  0  0  0  0  0  0  0  0  0  0
    6.6213   -3.9742    0.0000 O   0  0  0  0  0  0  0  0  0  0  0  0
    6.3663   -4.7588    0.0000 C   0  0  0  0  0  0  0  0  0  0  0  0
    6.8513   -5.4262    0.0000 C   0  0  0  0  0  0  0  0  0  0  0  0
    7.6717   -5.3400    0.0000 O   0  0  0  0  0  0  0  0  0  0  0  0
    5.5413   -4.7588    0.0000 C   0  0  0  0  0  0  0  0  0  0  0  0
    5.0564   -5.4262    0.0000 O   0  0  0  0  0  0  0  0  0  0  0  0
    5.2864   -3.9742    0.0000 C   0  0  0  0  0  0  0  0  0  0  0  0
    4.5018   -3.7192    0.0000 O   0  0  0  0  0  0  0  0  0  0  0  0
    7.8649   -2.4346    0.0000 C   0  0  0  0  0  0  0  0  0  0  0  0
    7.6099   -1.6500    0.0000 O   0  0  0  0  0  0  0  0  0  0  0  0
    8.6719   -2.6061    0.0000 C   0  0  0  0  0  0  0  0  0  0  0  0
    9.2239   -1.9930    0.0000 O   0  0  0  0  0  0  0  0  0  0  0  0
    8.9268   -3.3907    0.0000 C   0  0  0  0  0  0  0  0  0  0  0  0
    9.7338   -3.5622    0.0000 O   0  0  0  0  0  0  0  0  0  0  0  0
    0.0000    0.0000    0.0000 H   0  0  0  0  0  0  0  0  0  0  0  0
    0.0000    0.0000    0.0000 H   0  0  0  0  0  0  0  0  0  0  0  0
    0.0000    0.0000    0.0000 H   0  0  0  0  0  0  0  0  0  0  0  0
    0.0000    0.0000    0.0000 H   0  0  0  0  0  0  0  0  0  0  0  0
    0.0000    0.0000    0.0000 H   0  0  0  0  0  0  0  0  0  0  0  0
    0.0000    0.0000    0.0000 H   0  0  0  0  0  0  0  0  0  0  0  0
    0.0000    0.0000    0.0000 H   0  0  0  0  0  0  0  0  0  0  0  0
    0.0000    0.0000    0.0000 H   0  0  0  0  0  0  0  0  0  0  0  0
    0.0000    0.0000    0.0000 H   0  0  0  0  0  0  0  0  0  0  0  0
    0.0000    0.0000    0.0000 H   0  0  0  0  0  0  0  0  0  0  0  0
    0.0000    0.0000    0.0000 H   0  0  0  0  0  0  0  0  0  0  0  0
    0.0000    0.0000    0.0000 H   0  0  0  0  0  0  0  0  0  0  0  0
    0.0000    0.0000    0.0000 H   0  0  0  0  0  0  0  0  0  0  0  0
    0.0000    0.0000    0.0000 H   0  0  0  0  0  0  0  0  0  0  0  0
    0.0000    0.0000    0.0000 H   0  0  0  0  0  0  0  0  0  0  0  0
    0.0000    0.0000    0.0000 H   0  0  0  0  0  0  0  0  0  0  0  0
    0.0000    0.0000    0.0000 H   0  0  0  0  0  0  0  0  0  0  0  0
    0.0000    0.0000    0.0000 H   0  0  0  0  0  0  0  0  0  0  0  0
    0.0000    0.0000    0.0000 H   0  0  0  0  0  0  0  0  0  0  0  0
    0.0000    0.0000    0.0000 H   0  0  0  0  0  0  0  0  0  0  0  0
    0.0000    0.0000    0.0000 H   0  0  0  0  0  0  0  0  0  0  0  0
    0.0000    0.0000    0.0000 H   0  0  0  0  0  0  0  0  0  0  0  0
    0.0000    0.0000    0.0000 H   0  0  0  0  0  0  0  0  0  0  0  0
    0.0000    0.0000    0.0000 H   0  0  0  0  0  0  0  0  0  0  0  0
    0.0000    0.0000    0.0000 H   0  0  0  0  0  0  0  0  0  0  0  0
    0.0000    0.0000    0.0000 H   0  0  0  0  0  0  0  0  0  0  0  0
    0.0000    0.0000    0.0000 H   0  0  0  0  0  0  0  0  0  0  0  0
    0.0000    0.0000    0.0000 H   0  0  0  0  0  0  0  0  0  0  0  0
    0.0000    0.0000    0.0000 H   0  0  0  0  0  0  0  0  0  0  0  0
    0.0000    0.0000    0.0000 H   0  0  0  0  0  0  0  0  0  0  0  0
    0.0000    0.0000    0.0000 H   0  0  0  0  0  0  0  0  0  0  0  0
    0.0000    0.0000    0.0000 H   0  0  0  0  0  0  0  0  0  0  0  0
    0.0000    0.0000    0.0000 H   0  0  0  0  0  0  0  0  0  0  0  0
    0.0000    0.0000    0.0000 H   0  0  0  0  0  0  0  0  0  0  0  0
    0.0000    0.0000    0.0000 H   0  0  0  0  0  0  0  0  0  0  0  0
    0.0000    0.0000    0.0000 H   0  0  0  0  0  0  0  0  0  0  0  0
    0.0000    0.0000    0.0000 H   0  0  0  0  0  0  0  0  0  0  0  0
    0.0000    0.0000    0.0000 H   0  0  0  0  0  0  0  0  0  0  0  0
    0.0000    0.0000    0.0000 H   0  0  0  0  0  0  0  0  0  0  0  0
    0.0000    0.0000    0.0000 H   0  0  0  0  0  0  0  0  0  0  0  0
    0.0000    0.0000    0.0000 H   0  0  0  0  0  0  0  0  0  0  0  0
    0.0000    0.0000    0.0000 H   0  0  0  0  0  0  0  0  0  0  0  0
    0.0000    0.0000    0.0000 H   0  0  0  0  0  0  0  0  0  0  0  0
    0.0000    0.0000    0.0000 H   0  0  0  0  0  0  0  0  0  0  0  0
    0.0000    0.0000    0.0000 H   0  0  0  0  0  0  0  0  0  0  0  0
    0.0000    0.0000    0.0000 H   0  0  0  0  0  0  0  0  0  0  0  0
    0.0000    0.0000    0.0000 H   0  0  0  0  0  0  0  0  0  0  0  0
    0.0000    0.0000    0.0000 H   0  0  0  0  0  0  0  0  0  0  0  0
    0.0000    0.0000    0.0000 H   0  0  0  0  0  0  0  0  0  0  0  0
    0.0000    0.0000    0.0000 H   0  0  0  0  0  0  0  0  0  0  0  0
    0.0000    0.0000    0.0000 H   0  0  0  0  0  0  0  0  0  0  0  0
    0.0000    0.0000    0.0000 H   0  0  0  0  0  0  0  0  0  0  0  0
    0.0000    0.0000    0.0000 H   0  0  0  0  0  0  0  0  0  0  0  0
    0.0000    0.0000    0.0000 H   0  0  0  0  0  0  0  0  0  0  0  0
    0.0000    0.0000    0.0000 H   0  0  0  0  0  0  0  0  0  0  0  0
    0.0000    0.0000    0.0000 H   0  0  0  0  0  0  0  0  0  0  0  0
    0.0000    0.0000    0.0000 H   0  0  0  0  0  0  0  0  0  0  0  0
    0.0000    0.0000    0.0000 H   0  0  0  0  0  0  0  0  0  0  0  0
    0.0000    0.0000    0.0000 H   0  0  0  0  0  0  0  0  0  0  0  0
    0.0000    0.0000    0.0000 H   0  0  0  0  0  0  0  0  0  0  0  0
    0.0000    0.0000    0.0000 H   0  0  0  0  0  0  0  0  0  0  0  0
    0.0000    0.0000    0.0000 H   0  0  0  0  0  0  0  0  0  0  0  0
    0.0000    0.0000    0.0000 H   0  0  0  0  0  0  0  0  0  0  0  0
    0.0000    0.0000    0.0000 H   0  0  0  0  0  0  0  0  0  0  0  0
    0.0000    0.0000    0.0000 H   0  0  0  0  0  0  0  0  0  0  0  0
    0.0000    0.0000    0.0000 H   0  0  0  0  0  0  0  0  0  0  0  0
    0.0000    0.0000    0.0000 H   0  0  0  0  0  0  0  0  0  0  0  0
    0.0000    0.0000    0.0000 H   0  0  0  0  0  0  0  0  0  0  0  0
    0.0000    0.0000    0.0000 H   0  0  0  0  0  0  0  0  0  0  0  0
    0.0000    0.0000    0.0000 H   0  0  0  0  0  0  0  0  0  0  0  0
    0.0000    0.0000    0.0000 H   0  0  0  0  0  0  0  0  0  0  0  0
    0.0000    0.0000    0.0000 H   0  0  0  0  0  0  0  0  0  0  0  0
    0.0000    0.0000    0.0000 H   0  0  0  0  0  0  0  0  0  0  0  0
    0.0000    0.0000    0.0000 H   0  0  0  0  0  0  0  0  0  0  0  0
    0.0000    0.0000    0.0000 H   0  0  0  0  0  0  0  0  0  0  0  0
    0.0000    0.0000    0.0000 H   0  0  0  0  0  0  0  0  0  0  0  0
    0.0000    0.0000    0.0000 H   0  0  0  0  0  0  0  0  0  0  0  0
    0.0000    0.0000    0.0000 H   0  0  0  0  0  0  0  0  0  0  0  0
    0.0000    0.0000    0.0000 H   0  0  0  0  0  0  0  0  0  0  0  0
    0.0000    0.0000    0.0000 H   0  0  0  0  0  0  0  0  0  0  0  0
    0.0000    0.0000    0.0000 H   0  0  0  0  0  0  0  0  0  0  0  0
    0.0000    0.0000    0.0000 H   0  0  0  0  0  0  0  0  0  0  0  0
    0.0000    0.0000    0.0000 H   0  0  0  0  0  0  0  0  0  0  0  0
    0.0000    0.0000    0.0000 H   0  0  0  0  0  0  0  0  0  0  0  0
    0.0000    0.0000    0.0000 H   0  0  0  0  0  0  0  0  0  0  0  0
    0.0000    0.0000    0.0000 H   0  0  0  0  0  0  0  0  0  0  0  0
    0.0000    0.0000    0.0000 H   0  0  0  0  0  0  0  0  0  0  0  0
    0.0000    0.0000    0.0000 H   0  0  0  0  0  0  0  0  0  0  0  0
    0.0000    0.0000    0.0000 H   0  0  0  0  0  0  0  0  0  0  0  0
    0.0000    0.0000    0.0000 H   0  0  0  0  0  0  0  0  0  0  0  0
    0.0000    0.0000    0.0000 H   0  0  0  0  0  0  0  0  0  0  0  0
    0.0000    0.0000    0.0000 H   0  0  0  0  0  0  0  0  0  0  0  0
    0.0000    0.0000    0.0000 H   0  0  0  0  0  0  0  0  0  0  0  0
    0.0000    0.0000    0.0000 H   0  0  0  0  0  0  0  0  0  0  0  0
    0.0000    0.0000    0.0000 H   0  0  0  0  0  0  0  0  0  0  0  0
    0.0000    0.0000    0.0000 H   0  0  0  0  0  0  0  0  0  0  0  0
    0.0000    0.0000    0.0000 H   0  0  0  0  0  0  0  0  0  0  0  0
    0.0000    0.0000    0.0000 H   0  0  0  0  0  0  0  0  0  0  0  0
    0.0000    0.0000    0.0000 H   0  0  0  0  0  0  0  0  0  0  0  0
    0.0000    0.0000    0.0000 H   0  0  0  0  0  0  0  0  0  0  0  0
    0.0000    0.0000    0.0000 H   0  0  0  0  0  0  0  0  0  0  0  0
    0.0000    0.0000    0.0000 H   0  0  0  0  0  0  0  0  0  0  0  0
    0.0000    0.0000    0.0000 H   0  0  0  0  0  0  0  0  0  0  0  0
    0.0000    0.0000    0.0000 H   0  0  0  0  0  0  0  0  0  0  0  0
    0.0000    0.0000    0.0000 H   0  0  0  0  0  0  0  0  0  0  0  0
    0.0000    0.0000    0.0000 H   0  0  0  0  0  0  0  0  0  0  0  0
    0.0000    0.0000    0.0000 H   0  0  0  0  0  0  0  0  0  0  0  0
    0.0000    0.0000    0.0000 H   0  0  0  0  0  0  0  0  0  0  0  0
    0.0000    0.0000    0.0000 H   0  0  0  0  0  0  0  0  0  0  0  0
    0.0000    0.0000    0.0000 H   0  0  0  0  0  0  0  0  0  0  0  0
    0.0000    0.0000    0.0000 H   0  0  0  0  0  0  0  0  0  0  0  0
    0.0000    0.0000    0.0000 H   0  0  0  0  0  0  0  0  0  0  0  0
    0.0000    0.0000    0.0000 H   0  0  0  0  0  0  0  0  0  0  0  0
    0.0000    0.0000    0.0000 H   0  0  0  0  0  0  0  0  0  0  0  0
    0.0000    0.0000    0.0000 H   0  0  0  0  0  0  0  0  0  0  0  0
    0.0000    0.0000    0.0000 H   0  0  0  0  0  0  0  0  0  0  0  0
    0.0000    0.0000    0.0000 H   0  0  0  0  0  0  0  0  0  0  0  0
    0.0000    0.0000    0.0000 H   0  0  0  0  0  0  0  0  0  0  0  0
    0.0000    0.0000    0.0000 H   0  0  0  0  0  0  0  0  0  0  0  0
    0.0000    0.0000    0.0000 H   0  0  0  0  0  0  0  0  0  0  0  0
    0.0000    0.0000    0.0000 H   0  0  0  0  0  0  0  0  0  0  0  0
  7  8  1  0
  9  8  1  1
  9 10  1  0
  9 11  1  0
 11 12  1  1
 11 13  1  0
 13 14  1  1
 13 15  1  0
 15 16  1  1
 15 17  1  0
 17 18  2  0
 17 19  1  0
 20 21  1  0
 22 21  1  1
 22 23  1  0
 23 24  1  0
 24 25  1  6
 26 25  1  6
 26 27  1  0
 27 28  1  0
 26 29  1  0
 29 30  1  0
 30 31  1  6
 31 32  1  0
 30 33  1  0
 33 34  1  1
 33 35  1  0
 26 35  1  0
 35 36  1  1
 24 37  1  0
 37 38  1  1
 37 39  1  0
 39 40  1  6
 39 41  1  0
 22 41  1  0
 41 42  1  1
 43 44  1  0
 45 44  1  1
 45 46  1  0
 46 47  1  0
 47 48  1  6
 49 48  1  6
 49 50  1  0
 50 51  1  0
 49 52  1  0
 52 53  1  0
 53 54  1  6
 54 55  1  0
 53 56  1  0
 56 57  1  1
 56 58  1  0
 49 58  1  0
 58 59  1  6
 47 60  1  0
 60 61  1  6
 60 62  1  0
 62 63  1  6
 62 64  1  0
 45 64  1  0
 64 65  1  1
 66 67  1  0
 68 67  1  1
 68 69  1  0
 69 70  1  0
 70 71  1  1
 72 71  1  6
 72 73  1  0
 73 74  1  0
 72 75  1  0
 75 76  1  0
 76 77  1  6
 77 78  1  0
 76 79  1  0
 79 80  1  6
 79 81  1  0
 72 81  1  0
 81 82  1  1
 70 83  1  0
 83 84  1  6
 83 85  1  0
 85 86  1  1
 85 87  1  0
 68 87  1  0
 87 88  1  6
 89 90  1  0
 91 90  1  6
 91 92  1  0
 92 93  1  0
 93 94  1  6
 95 94  1  6
 95 96  1  0
 96 97  1  0
 95 98  1  0
 98 99  1  0
 99100  1  1
100101  1  0
 99102  1  0
102103  1  6
102104  1  0
 95104  1  0
104105  1  6
 93106  1  0
106107  1  6
106108  1  0
108109  1  1
108110  1  0
 91110  1  0
110111  1  1
112113  1  0
114113  1  6
114115  1  0
115116  1  0
116117  1  6
118117  1  6
118119  1  0
119120  1  0
118121  1  0
121122  1  0
122123  1  1
123124  1  0
122125  1  0
125126  1  1
125127  1  0
118127  1  0
127128  1  6
116129  1  0
129130  1  6
129131  1  0
131132  1  1
131133  1  0
114133  1  0
133134  1  1
  7135  1  0
  8136  1  0
  8137  1  0
  9138  1  0
 10139  1  0
 11140  1  0
 12141  1  0
 13142  1  0
 14143  1  0
 15144  1  0
 16145  1  0
 20146  1  0
 21147  1  0
 21148  1  0
 22149  1  0
 24150  1  0
 27151  1  0
 27152  1  0
 28153  1  0
 30154  1  0
 31155  1  0
 31156  1  0
 32157  1  0
 33158  1  0
 34159  1  0
 35160  1  0
 36161  1  0
 37162  1  0
 38163  1  0
 39164  1  0
 40165  1  0
 41166  1  0
 42167  1  0
 43168  1  0
 44169  1  0
 44170  1  0
 45171  1  0
 47172  1  0
 50173  1  0
 50174  1  0
 51175  1  0
 53176  1  0
 54177  1  0
 54178  1  0
 55179  1  0
 56180  1  0
 57181  1  0
 58182  1  0
 59183  1  0
 60184  1  0
 61185  1  0
 62186  1  0
 63187  1  0
 64188  1  0
 65189  1  0
 66190  1  0
 67191  1  0
 67192  1  0
 68193  1  0
 70194  1  0
 73195  1  0
 73196  1  0
 74197  1  0
 76198  1  0
 77199  1  0
 77200  1  0
 78201  1  0
 79202  1  0
 80203  1  0
 81204  1  0
 82205  1  0
 83206  1  0
 84207  1  0
 85208  1  0
 86209  1  0
 87210  1  0
 88211  1  0
 89212  1  0
 90213  1  0
 90214  1  0
 91215  1  0
 93216  1  0
 96217  1  0
 96218  1  0
 97219  1  0
 99220  1  0
100221  1  0
100222  1  0
101223  1  0
102224  1  0
103225  1  0
104226  1  0
105227  1  0
106228  1  0
107229  1  0
108230  1  0
109231  1  0
110232  1  0
111233  1  0
112234  1  0
113235  1  0
113236  1  0
114237  1  0
116238  1  0
119239  1  0
119240  1  0
120241  1  0
122242  1  0
123243  1  0
123244  1  0
124245  1  0
125246  1  0
126247  1  0
127248  1  0
128249  1  0
129250  1  0
130251  1  0
131252  1  0
132253  1  0
133254  1  0
134255  1  0
M  CHG  7   1  -2   2  -2   3  -2   4   1   5   3   6   3  19  -1
M  END
>  <ALOGPS_LOGP>  (1) 
-2.63

>  <ALOGPS_LOGS>  (1) 
0.38

>  <ALOGPS_SOLUBILITY>  (1) 
8.24e+02 g/l

>  <DATABASE_ID>  (1) 
DB09517

>  <DATABASE_NAME>  (1) 
drugbank

>  <DRUGBANK_ID>  (1) 
DB09517

>  <DRUG_GROUPS>  (1) 
approved

>  <EXACT_MASS>  (1) 
2088.47592

>  <FORMULA>  (1) 
C66H121Fe2NaO65

>  <GENERIC_NAME>  (1) 
Sodium ferric gluconate complex

>  <INCHI_IDENTIFIER>  (1) 
InChI=1S/5C12H22O11.C6H12O7.2Fe.Na.3O/c5*13-1-4-6(16)8(18)9(19)11(21-4)23-12(3-15)10(20)7(17)5(2-14)22-12;7-1-2(8)3(9)4(10)5(11)6(12)13;;;;;;/h5*4-11,13-20H,1-3H2;2-5,7-11H,1H2,(H,12,13);;;;;;/q;;;;;;2*+3;+1;3*-2/p-1/t5*4-,5-,6-,7-,8+,9-,10+,11-,12+;2-,3-,4+,5-;;;;;;/m111111....../s1

>  <INCHI_KEY>  (1) 
MQBDAEHWGRMADS-XNHLMZCASA-M

>  <JCHEM_ACCEPTOR_COUNT>  (1) 
11

>  <JCHEM_ATOM_COUNT>  (1) 
255

>  <JCHEM_AVERAGE_POLARIZABILITY>  (1) 
30.857537523942046

>  <JCHEM_BIOAVAILABILITY>  (1) 
0

>  <JCHEM_DONOR_COUNT>  (1) 
8

>  <JCHEM_FORMAL_CHARGE>  (1) 
0

>  <JCHEM_GHOSE_FILTER>  (1) 
0

>  <JCHEM_IUPAC>  (1) 
diiron(3+) ion sodium pentakis((2R,3R,4S,5S,6R)-2-{[(2S,3S,4S,5R)-3,4-dihydroxy-2,5-bis(hydroxymethyl)oxolan-2-yl]oxy}-6-(hydroxymethyl)oxane-3,4,5-triol) (2R,3S,4R,5R)-2,3,4,5,6-pentahydroxyhexanoate trioxidandiide

>  <JCHEM_LOGP>  (1) 
-4.528834963666666

>  <JCHEM_MDDR_LIKE_RULE>  (1) 
1

>  <JCHEM_NUMBER_OF_RINGS>  (1) 
10

>  <JCHEM_PHYSIOLOGICAL_CHARGE>  (1) 
0

>  <JCHEM_PKA>  (1) 
12.393795156229878

>  <JCHEM_PKA_STRONGEST_ACIDIC>  (1) 
11.841279964942517

>  <JCHEM_PKA_STRONGEST_BASIC>  (1) 
-2.9810849127905703

>  <JCHEM_POLAR_SURFACE_AREA>  (1) 
189.52999999999997

>  <JCHEM_REFRACTIVITY>  (1) 
68.77409999999999

>  <JCHEM_ROTATABLE_BOND_COUNT>  (1) 
30

>  <JCHEM_RULE_OF_FIVE>  (1) 
0

>  <JCHEM_TRADITIONAL_IUPAC>  (1) 
diiron(3+) ion sodium pentakis(sucrose) D-gluconate trioxidandiide

>  <JCHEM_VEBER_RULE>  (1) 
0

>  <MOLECULAR_WEIGHT>  (1) 
2089.309

>  <PRODUCTS>  (1) 
Ferrlecit; Nulecit; Sodium Ferric Gluconate Complex; Sodium Ferric Gluconate Complex in Sucrose

>  <SMILES>  (1) 
[O--].[O--].[O--].[Na+].[Fe+3].[Fe+3].OC[C@@H](O)[C@@H](O)[C@H](O)[C@@H](O)C([O-])=O.OC[C@H]1O[C@@](CO)(O[C@H]2O[C@H](CO)[C@@H](O)[C@H](O)[C@H]2O)[C@@H](O)[C@@H]1O.OC[C@H]1O[C@@](CO)(O[C@H]2O[C@H](CO)[C@@H](O)[C@H](O)[C@H]2O)[C@@H](O)[C@@H]1O.OC[C@H]1O[C@@](CO)(O[C@H]2O[C@H](CO)[C@@H](O)[C@H](O)[C@H]2O)[C@@H](O)[C@@H]1O.OC[C@H]1O[C@@](CO)(O[C@H]2O[C@H](CO)[C@@H](O)[C@H](O)[C@H]2O)[C@@H](O)[C@@H]1O.OC[C@H]1O[C@@](CO)(O[C@H]2O[C@H](CO)[C@@H](O)[C@H](O)[C@H]2O)[C@@H](O)[C@@H]1O

>  <SYNONYMS>  (1) 
Ferric sodium gluconate complex

$$$$
