
     RDKit          2D

 40 40  0  0  0  0  0  0  0  0999 V2000
   -1.0661   -0.0072    0.0000 C   0  0  0  0  0  0  0  0  0  0  0  0
    0.3618   -0.0314    0.0000 C   0  0  0  0  0  0  0  0  0  0  0  0
   -0.3521   -0.4221    0.0000 C   0  0  0  0  0  0  0  0  0  0  0  0
   -1.0661    0.8129    0.0000 C   0  0  0  0  0  0  0  0  0  0  0  0
    0.3618    0.7839    0.0000 C   0  0  0  0  0  0  0  0  0  0  0  0
   -1.7897   -0.4221    0.0000 C   0  0  0  0  0  0  0  0  0  0  0  0
   -0.3280    1.2181    0.0000 C   0  0  0  0  0  0  0  0  0  0  0  0
    1.0661   -0.4462    0.0000 N   0  0  0  0  0  0  0  0  0  0  0  0
   -3.2225   -0.3932    0.0000 C   0  0  0  0  0  0  0  0  0  0  0  0
    1.7946   -0.0314    0.0000 C   0  0  0  0  0  0  0  0  0  0  0  0
   -2.4893    0.0024    0.0000 C   0  0  0  0  0  0  0  0  0  0  0  0
   -3.9415    0.0169    0.0000 O   0  0  0  0  0  0  0  0  0  0  0  0
   -3.2225   -1.2181    0.0000 O   0  0  0  0  0  0  0  0  0  0  0  0
    1.7752    0.7308    0.0000 O   0  0  0  0  0  0  0  0  0  0  0  0
   -0.3618   -1.2471    0.0000 I   0  0  0  0  0  0  0  0  0  0  0  0
   -1.7657    1.2278    0.0000 I   0  0  0  0  0  0  0  0  0  0  0  0
    1.0903    1.1939    0.0000 I   0  0  0  0  0  0  0  0  0  0  0  0
    2.5086   -0.4511    0.0000 C   0  0  0  0  0  0  0  0  0  0  0  0
   -2.4893    0.8225    0.0000 C   0  0  0  0  0  0  0  0  0  0  0  0
    3.2225   -0.0409    0.0000 C   0  0  0  0  0  0  0  0  0  0  0  0
   -3.2178    1.2471    0.0000 C   0  0  0  0  0  0  0  0  0  0  0  0
    3.9415   -0.4800    0.0000 C   0  0  0  0  0  0  0  0  0  0  0  0
    0.0000    0.0000    0.0000 H   0  0  0  0  0  0  0  0  0  0  0  0
    0.0000    0.0000    0.0000 H   0  0  0  0  0  0  0  0  0  0  0  0
    0.0000    0.0000    0.0000 H   0  0  0  0  0  0  0  0  0  0  0  0
    0.0000    0.0000    0.0000 H   0  0  0  0  0  0  0  0  0  0  0  0
    0.0000    0.0000    0.0000 H   0  0  0  0  0  0  0  0  0  0  0  0
    0.0000    0.0000    0.0000 H   0  0  0  0  0  0  0  0  0  0  0  0
    0.0000    0.0000    0.0000 H   0  0  0  0  0  0  0  0  0  0  0  0
    0.0000    0.0000    0.0000 H   0  0  0  0  0  0  0  0  0  0  0  0
    0.0000    0.0000    0.0000 H   0  0  0  0  0  0  0  0  0  0  0  0
    0.0000    0.0000    0.0000 H   0  0  0  0  0  0  0  0  0  0  0  0
    0.0000    0.0000    0.0000 H   0  0  0  0  0  0  0  0  0  0  0  0
    0.0000    0.0000    0.0000 H   0  0  0  0  0  0  0  0  0  0  0  0
    0.0000    0.0000    0.0000 H   0  0  0  0  0  0  0  0  0  0  0  0
    0.0000    0.0000    0.0000 H   0  0  0  0  0  0  0  0  0  0  0  0
    0.0000    0.0000    0.0000 H   0  0  0  0  0  0  0  0  0  0  0  0
    0.0000    0.0000    0.0000 H   0  0  0  0  0  0  0  0  0  0  0  0
    0.0000    0.0000    0.0000 H   0  0  0  0  0  0  0  0  0  0  0  0
    0.0000    0.0000    0.0000 H   0  0  0  0  0  0  0  0  0  0  0  0
  2  3  1  0
  3  1  2  0
  4  1  1  0
  5  7  1  0
  6  1  1  0
  7  4  2  0
  8  2  1  0
  9 11  1  0
 10  8  1  0
 11  6  1  0
 12  9  1  0
 13  9  2  0
 14 10  2  0
 15  3  1  0
 16  4  1  0
 17  5  1  0
 18 10  1  0
 19 11  1  0
 20 18  1  0
 21 19  1  0
 22 20  1  0
  5  2  2  0
  6 23  1  0
  6 24  1  0
  7 25  1  0
  8 26  1  0
 11 27  1  0
 12 28  1  0
 18 29  1  0
 18 30  1  0
 19 31  1  0
 19 32  1  0
 20 33  1  0
 20 34  1  0
 21 35  1  0
 21 36  1  0
 21 37  1  0
 22 38  1  0
 22 39  1  0
 22 40  1  0
M  END
>  <ALOGPS_LOGP>  (1) 
4.14

>  <ALOGPS_LOGS>  (1) 
-5.30

>  <ALOGPS_SOLUBILITY>  (1) 
3.18e-03 g/l

>  <DATABASE_ID>  (1) 
DB09340

>  <DATABASE_NAME>  (1) 
drugbank

>  <DRUGBANK_ID>  (1) 
DB09340

>  <DRUG_GROUPS>  (1) 
approved

>  <EXACT_MASS>  (1) 
640.84208

>  <FORMULA>  (1) 
C15H18I3NO3

>  <GENERIC_NAME>  (1) 
Tyropanoic acid

>  <INCHI_IDENTIFIER>  (1) 
InChI=1S/C15H18I3NO3/c1-3-5-12(20)19-14-11(17)7-10(16)9(13(14)18)6-8(4-2)15(21)22/h7-8H,3-6H2,1-2H3,(H,19,20)(H,21,22)

>  <INCHI_KEY>  (1) 
YMOXVLQZFAUUKI-UHFFFAOYSA-N

>  <JCHEM_ACCEPTOR_COUNT>  (1) 
3

>  <JCHEM_ATOM_COUNT>  (1) 
40

>  <JCHEM_AVERAGE_POLARIZABILITY>  (1) 
44.91334099214663

>  <JCHEM_BIOAVAILABILITY>  (1) 
0

>  <JCHEM_DONOR_COUNT>  (1) 
2

>  <JCHEM_FORMAL_CHARGE>  (1) 
0

>  <JCHEM_GHOSE_FILTER>  (1) 
0

>  <JCHEM_IUPAC>  (1) 
2-[(3-butanamido-2,4,6-triiodophenyl)methyl]butanoic acid

>  <JCHEM_LOGP>  (1) 
6.212766027999999

>  <JCHEM_MDDR_LIKE_RULE>  (1) 
0

>  <JCHEM_NUMBER_OF_RINGS>  (1) 
1

>  <JCHEM_PHYSIOLOGICAL_CHARGE>  (1) 
-1

>  <JCHEM_PKA>  (1) 
12.144780514289431

>  <JCHEM_PKA_STRONGEST_ACIDIC>  (1) 
2.5167133593321407

>  <JCHEM_PKA_STRONGEST_BASIC>  (1) 
-3.947301579645601

>  <JCHEM_POLAR_SURFACE_AREA>  (1) 
66.4

>  <JCHEM_REFRACTIVITY>  (1) 
115.32050000000001

>  <JCHEM_ROTATABLE_BOND_COUNT>  (1) 
7

>  <JCHEM_RULE_OF_FIVE>  (1) 
0

>  <JCHEM_TRADITIONAL_IUPAC>  (1) 
tyropanoic acid

>  <JCHEM_VEBER_RULE>  (1) 
0

>  <MOLECULAR_WEIGHT>  (1) 
641.026

>  <SALTS>  (1) 
Tyropanoate sodium

>  <SMILES>  (1) 
CCCC(=O)NC1=C(I)C=C(I)C(CC(CC)C(O)=O)=C1I

$$$$
