
     RDKit          2D

 28 30  0  0  1  0  0  0  0  0999 V2000
   -1.1670   -0.3348    0.0000 C   0  0  0  0  0  0  0  0  0  0  0  0
   -0.3968   -0.0390    0.0000 C   0  0  0  0  0  0  0  0  0  0  0  0
   -1.2959   -1.1496    0.0000 C   0  0  0  0  0  0  0  0  0  0  0  0
    1.7132   -0.1214    0.0000 C   0  0  0  0  0  0  0  0  0  0  0  0
    1.6290   -1.9119    0.0000 C   0  0  0  0  0  0  0  0  0  0  0  0
    1.2248   -1.5105    0.0000 C   0  0  0  0  0  0  0  0  0  0  0  0
    0.6220   -0.9357    0.0000 C   0  0  0  0  0  0  0  0  0  0  0  0
    1.5820   -0.9250    0.0000 C   0  0  0  0  0  0  0  0  0  0  0  0
    1.1634   -0.5574    0.0000 C   0  0  0  0  0  0  0  0  0  0  0  0
    0.2444   -0.5581    0.0000 C   0  0  0  0  0  0  0  0  0  0  0  0
   -0.6547   -1.6687    0.0000 C   0  0  0  0  0  0  0  0  0  0  0  0
    0.8127   -2.0914    0.0000 N   0  0  0  0  0  0  0  0  0  0  0  0
    0.1154   -1.3730    0.0000 N   0  0  0  0  0  0  0  0  0  0  0  0
   -0.7837   -2.4836    0.0000 O   0  0  0  0  0  0  0  0  0  0  0  0
    0.0000    0.0000    0.0000 H   0  0  0  0  0  0  0  0  0  0  0  0
    0.0000    0.0000    0.0000 H   0  0  0  0  0  0  0  0  0  0  0  0
    0.0000    0.0000    0.0000 H   0  0  0  0  0  0  0  0  0  0  0  0
    0.0000    0.0000    0.0000 H   0  0  0  0  0  0  0  0  0  0  0  0
    0.0000    0.0000    0.0000 H   0  0  0  0  0  0  0  0  0  0  0  0
    0.0000    0.0000    0.0000 H   0  0  0  0  0  0  0  0  0  0  0  0
    0.0000    0.0000    0.0000 H   0  0  0  0  0  0  0  0  0  0  0  0
    0.0000    0.0000    0.0000 H   0  0  0  0  0  0  0  0  0  0  0  0
    0.0000    0.0000    0.0000 H   0  0  0  0  0  0  0  0  0  0  0  0
    0.0000    0.0000    0.0000 H   0  0  0  0  0  0  0  0  0  0  0  0
    0.0000    0.0000    0.0000 H   0  0  0  0  0  0  0  0  0  0  0  0
    0.0000    0.0000    0.0000 H   0  0  0  0  0  0  0  0  0  0  0  0
    0.0000    0.0000    0.0000 H   0  0  0  0  0  0  0  0  0  0  0  0
    0.0000    0.0000    0.0000 H   0  0  0  0  0  0  0  0  0  0  0  0
  2  1  1  0
  3  1  2  0
  8  4  1  0
  8  5  1  0
  8  7  1  0
  9  4  1  0
  9  6  1  0
 10  2  2  0
 10  9  1  0
 11  3  1  0
 12  5  1  0
 12  6  1  0
 13  7  1  0
 13 10  1  0
 13 11  1  0
 14 11  2  0
  1 15  1  0
  2 16  1  0
  3 17  1  0
  4 18  1  0
  4 19  1  0
  5 20  1  0
  5 21  1  0
  6 22  1  0
  6 23  1  0
  7 24  1  0
  7 25  1  0
  8 26  1  6
  9 27  1  1
 12 28  1  0
M  END
>  <ALOGPS_LOGP>  (1) 
1.06

>  <ALOGPS_LOGS>  (1) 
-1.37

>  <ALOGPS_SOLUBILITY>  (1) 
8.14e+00 g/l

>  <DATABASE_ID>  (1) 
DB09028

>  <DATABASE_NAME>  (1) 
drugbank

>  <DRUGBANK_ID>  (1) 
DB09028

>  <DRUG_GROUPS>  (1) 
approved; investigational

>  <EXACT_MASS>  (1) 
190.11061308

>  <FORMULA>  (1) 
C11H14N2O

>  <GENERIC_NAME>  (1) 
Cytisine

>  <INCHI_IDENTIFIER>  (1) 
InChI=1S/C11H14N2O/c14-11-3-1-2-10-9-4-8(5-12-6-9)7-13(10)11/h1-3,8-9,12H,4-7H2/t8-,9+/m0/s1

>  <INCHI_KEY>  (1) 
ANJTVLIZGCUXLD-DTWKUNHWSA-N

>  <INTERNATIONAL_BRANDS>  (1) 
Tabex

>  <JCHEM_ACCEPTOR_COUNT>  (1) 
2

>  <JCHEM_AVERAGE_POLARIZABILITY>  (1) 
20.346577944473932

>  <JCHEM_BIOAVAILABILITY>  (1) 
1

>  <JCHEM_DONOR_COUNT>  (1) 
1

>  <JCHEM_FORMAL_CHARGE>  (1) 
0

>  <JCHEM_GHOSE_FILTER>  (1) 
1

>  <JCHEM_IUPAC>  (1) 
(1R,9S)-7,11-diazatricyclo[7.3.1.0²,⁷]trideca-2,4-dien-6-one

>  <JCHEM_LOGP>  (1) 
-0.27985360699999995

>  <JCHEM_MDDR_LIKE_RULE>  (1) 
0

>  <JCHEM_NUMBER_OF_RINGS>  (1) 
3

>  <JCHEM_PHYSIOLOGICAL_CHARGE>  (1) 
1

>  <JCHEM_PKA_STRONGEST_BASIC>  (1) 
9.823392598653696

>  <JCHEM_POLAR_SURFACE_AREA>  (1) 
32.34

>  <JCHEM_REFRACTIVITY>  (1) 
56.9283

>  <JCHEM_ROTATABLE_BOND_COUNT>  (1) 
0

>  <JCHEM_RULE_OF_FIVE>  (1) 
1

>  <JCHEM_TRADITIONAL_IUPAC>  (1) 
cytisine

>  <JCHEM_VEBER_RULE>  (1) 
1

>  <MOLECULAR_WEIGHT>  (1) 
190.2417

>  <SMILES>  (1) 
[H][C@@]12CNC[C@@]([H])(C1)C1=CC=CC(=O)N1C2

>  <SYNONYMS>  (1) 
(1R,5S)-1,2,3,4,5,6-Hexahydro-1,5-methano-8H-pyrido[1,2a][1,5]diazocin-8-one; Baptitoxine; Sophorine; Ulexin

$$$$
