
     RDKit          2D

 65 68  0  0  0  0  0  0  0  0999 V2000
    0.8694    1.4107    0.0000 O   0  0  0  0  0  0  0  0  0  0  0  0
   -3.3957    1.4107    0.0000 O   0  0  0  0  0  0  0  0  0  0  0  0
    0.1640    0.1640    0.0000 O   0  0  0  0  0  0  0  0  0  0  0  0
   -2.6902    0.1640    0.0000 O   0  0  0  0  0  0  0  0  0  0  0  0
    0.1640   -2.2802    0.0000 O   0  0  0  0  0  0  0  0  0  0  0  0
    1.0744   -0.8284    0.0000 O   0  0  0  0  0  0  0  0  0  0  0  0
   -1.2467    2.6493    0.0000 N   0  0  0  0  0  0  0  0  0  0  0  0
    0.1640   -1.4518    0.0000 N   0  0  0  0  0  0  0  0  0  0  0  0
    2.6492    0.2050    0.0000 N   0  0  0  0  0  0  0  0  0  0  0  0
   -1.2467    0.9924    0.0000 C   0  0  0  0  0  0  0  0  0  0  0  0
   -0.5412    1.4107    0.0000 C   0  0  0  0  0  0  0  0  0  0  0  0
   -1.9849    1.4107    0.0000 C   0  0  0  0  0  0  0  0  0  0  0  0
   -1.2467    0.1640    0.0000 C   0  0  0  0  0  0  0  0  0  0  0  0
   -0.5412    2.2391    0.0000 C   0  0  0  0  0  0  0  0  0  0  0  0
   -1.9849    2.2391    0.0000 C   0  0  0  0  0  0  0  0  0  0  0  0
    0.1640    0.9924    0.0000 C   0  0  0  0  0  0  0  0  0  0  0  0
   -2.6902    0.9924    0.0000 C   0  0  0  0  0  0  0  0  0  0  0  0
   -0.5412   -0.2051    0.0000 C   0  0  0  0  0  0  0  0  0  0  0  0
   -1.9438   -0.2460    0.0000 C   0  0  0  0  0  0  0  0  0  0  0  0
   -0.5412   -1.0335    0.0000 C   0  0  0  0  0  0  0  0  0  0  0  0
    1.5747    0.9924    0.0000 C   0  0  0  0  0  0  0  0  0  0  0  0
    0.1640    2.6493    0.0000 C   0  0  0  0  0  0  0  0  0  0  0  0
   -2.6902    2.6493    0.0000 C   0  0  0  0  0  0  0  0  0  0  0  0
   -1.9438   -1.0335    0.0000 C   0  0  0  0  0  0  0  0  0  0  0  0
   -1.2467   -1.4518    0.0000 C   0  0  0  0  0  0  0  0  0  0  0  0
    1.8207    0.2050    0.0000 C   0  0  0  0  0  0  0  0  0  0  0  0
    2.2391    1.4927    0.0000 C   0  0  0  0  0  0  0  0  0  0  0  0
    2.9034    0.9924    0.0000 C   0  0  0  0  0  0  0  0  0  0  0  0
    3.3546   -0.1640    0.0000 C   0  0  0  0  0  0  0  0  0  0  0  0
   -4.1010    0.9924    0.0000 C   0  0  0  0  0  0  0  0  0  0  0  0
    3.3546   -0.9924    0.0000 C   0  0  0  0  0  0  0  0  0  0  0  0
    2.6492   -1.4026    0.0000 C   0  0  0  0  0  0  0  0  0  0  0  0
    4.1010   -1.4026    0.0000 C   0  0  0  0  0  0  0  0  0  0  0  0
    2.6492   -2.2310    0.0000 C   0  0  0  0  0  0  0  0  0  0  0  0
    4.1010   -2.2310    0.0000 C   0  0  0  0  0  0  0  0  0  0  0  0
    3.3546   -2.6493    0.0000 C   0  0  0  0  0  0  0  0  0  0  0  0
    0.0000    0.0000    0.0000 H   0  0  0  0  0  0  0  0  0  0  0  0
    0.0000    0.0000    0.0000 H   0  0  0  0  0  0  0  0  0  0  0  0
    0.0000    0.0000    0.0000 H   0  0  0  0  0  0  0  0  0  0  0  0
    0.0000    0.0000    0.0000 H   0  0  0  0  0  0  0  0  0  0  0  0
    0.0000    0.0000    0.0000 H   0  0  0  0  0  0  0  0  0  0  0  0
    0.0000    0.0000    0.0000 H   0  0  0  0  0  0  0  0  0  0  0  0
    0.0000    0.0000    0.0000 H   0  0  0  0  0  0  0  0  0  0  0  0
    0.0000    0.0000    0.0000 H   0  0  0  0  0  0  0  0  0  0  0  0
    0.0000    0.0000    0.0000 H   0  0  0  0  0  0  0  0  0  0  0  0
    0.0000    0.0000    0.0000 H   0  0  0  0  0  0  0  0  0  0  0  0
    0.0000    0.0000    0.0000 H   0  0  0  0  0  0  0  0  0  0  0  0
    0.0000    0.0000    0.0000 H   0  0  0  0  0  0  0  0  0  0  0  0
    0.0000    0.0000    0.0000 H   0  0  0  0  0  0  0  0  0  0  0  0
    0.0000    0.0000    0.0000 H   0  0  0  0  0  0  0  0  0  0  0  0
    0.0000    0.0000    0.0000 H   0  0  0  0  0  0  0  0  0  0  0  0
    0.0000    0.0000    0.0000 H   0  0  0  0  0  0  0  0  0  0  0  0
    0.0000    0.0000    0.0000 H   0  0  0  0  0  0  0  0  0  0  0  0
    0.0000    0.0000    0.0000 H   0  0  0  0  0  0  0  0  0  0  0  0
    0.0000    0.0000    0.0000 H   0  0  0  0  0  0  0  0  0  0  0  0
    0.0000    0.0000    0.0000 H   0  0  0  0  0  0  0  0  0  0  0  0
    0.0000    0.0000    0.0000 H   0  0  0  0  0  0  0  0  0  0  0  0
    0.0000    0.0000    0.0000 H   0  0  0  0  0  0  0  0  0  0  0  0
    0.0000    0.0000    0.0000 H   0  0  0  0  0  0  0  0  0  0  0  0
    0.0000    0.0000    0.0000 H   0  0  0  0  0  0  0  0  0  0  0  0
    0.0000    0.0000    0.0000 H   0  0  0  0  0  0  0  0  0  0  0  0
    0.0000    0.0000    0.0000 H   0  0  0  0  0  0  0  0  0  0  0  0
    0.0000    0.0000    0.0000 H   0  0  0  0  0  0  0  0  0  0  0  0
    0.0000    0.0000    0.0000 H   0  0  0  0  0  0  0  0  0  0  0  0
    0.0000    0.0000    0.0000 H   0  0  0  0  0  0  0  0  0  0  0  0
  1 16  1  0
 21  1  1  1
  2 17  1  0
  2 30  1  0
  3 16  2  0
  4 17  2  0
  5  8  1  0
  6  8  2  0
  7 14  1  0
  7 15  1  0
  8 20  1  0
  9 26  1  0
  9 28  1  0
  9 29  1  0
 10 11  1  0
 10 12  1  0
 10 13  1  1
 11 14  2  0
 11 16  1  0
 12 15  2  0
 12 17  1  0
 13 18  2  0
 13 19  1  0
 14 22  1  0
 15 23  1  0
 18 20  1  0
 19 24  2  0
 20 25  2  0
 21 26  1  0
 21 27  1  0
 24 25  1  0
 27 28  1  0
 29 31  1  0
 31 32  2  0
 31 33  1  0
 32 34  1  0
 33 35  2  0
 34 36  2  0
 35 36  1  0
  7 37  1  0
 10 38  1  0
 18 39  1  0
 19 40  1  0
 21 41  1  0
 22 42  1  0
 22 43  1  0
 22 44  1  0
 23 45  1  0
 23 46  1  0
 23 47  1  0
 24 48  1  0
 25 49  1  0
 26 50  1  0
 26 51  1  0
 27 52  1  0
 27 53  1  0
 28 54  1  0
 28 55  1  0
 29 56  1  0
 29 57  1  0
 30 58  1  0
 30 59  1  0
 30 60  1  0
 32 61  1  0
 33 62  1  0
 34 63  1  0
 35 64  1  0
 36 65  1  0
M  CHG  2   5  -1   8   1
M  END
>  <ALOGPS_LOGP>  (1) 
4.12

>  <ALOGPS_LOGS>  (1) 
-5.09

>  <ALOGPS_SOLUBILITY>  (1) 
4.00e-03 g/l

>  <DATABASE_ID>  (1) 
DB09227

>  <DATABASE_NAME>  (1) 
drugbank

>  <DRUGBANK_ID>  (1) 
DB09227

>  <DRUG_GROUPS>  (1) 
approved

>  <EXACT_MASS>  (1) 
491.205635666

>  <FORMULA>  (1) 
C27H29N3O6

>  <GENERIC_NAME>  (1) 
Barnidipine

>  <INCHI_IDENTIFIER>  (1) 
InChI=1S/C27H29N3O6/c1-17-23(26(31)35-3)25(20-10-7-11-21(14-20)30(33)34)24(18(2)28-17)27(32)36-22-12-13-29(16-22)15-19-8-5-4-6-9-19/h4-11,14,22,25,28H,12-13,15-16H2,1-3H3/t22-,25-/m0/s1

>  <INCHI_KEY>  (1) 
VXMOONUMYLCFJD-DHLKQENFSA-N

>  <JCHEM_ACCEPTOR_COUNT>  (1) 
6

>  <JCHEM_ATOM_COUNT>  (1) 
65

>  <JCHEM_AVERAGE_POLARIZABILITY>  (1) 
51.02808281067383

>  <JCHEM_BIOAVAILABILITY>  (1) 
1

>  <JCHEM_DONOR_COUNT>  (1) 
1

>  <JCHEM_FORMAL_CHARGE>  (1) 
0

>  <JCHEM_GHOSE_FILTER>  (1) 
0

>  <JCHEM_IUPAC>  (1) 
3-(3S)-1-benzylpyrrolidin-3-yl 5-methyl (4S)-2,6-dimethyl-4-(3-nitrophenyl)-1,4-dihydropyridine-3,5-dicarboxylate

>  <JCHEM_LOGP>  (1) 
3.5068137870000005

>  <JCHEM_MDDR_LIKE_RULE>  (1) 
1

>  <JCHEM_NUMBER_OF_RINGS>  (1) 
4

>  <JCHEM_PHYSIOLOGICAL_CHARGE>  (1) 
1

>  <JCHEM_PKA_STRONGEST_ACIDIC>  (1) 
19.466343335737914

>  <JCHEM_PKA_STRONGEST_BASIC>  (1) 
7.90781957047579

>  <JCHEM_POLAR_SURFACE_AREA>  (1) 
111.00999999999999

>  <JCHEM_REFRACTIVITY>  (1) 
136.35879999999997

>  <JCHEM_ROTATABLE_BOND_COUNT>  (1) 
9

>  <JCHEM_RULE_OF_FIVE>  (1) 
1

>  <JCHEM_TRADITIONAL_IUPAC>  (1) 
cyress

>  <JCHEM_VEBER_RULE>  (1) 
0

>  <MOLECULAR_WEIGHT>  (1) 
491.544

>  <SMILES>  (1) 
COC(=O)C1=C(C)NC(C)=C([C@H]1C1=CC(=CC=C1)[N+]([O-])=O)C(=O)O[C@H]1CCN(CC2=CC=CC=C2)C1

>  <SYNONYMS>  (1) 
Mepirodipine

$$$$
