
     RDKit          2D

  2  0  0  0  0  0  0  0  0  0999 V2000
    0.0000  -68.9429    0.0000 Na  0  0  0  0  0  0  0  0  0  0  0  0
    0.0000   68.9429    0.0000 F   0  0  0  0  0  0  0  0  0  0  0  0
M  CHG  2   1   1   2  -1
M  END
>  <DATABASE_ID>  (1) 
DB09325

>  <DATABASE_NAME>  (1) 
drugbank

>  <DRUGBANK_ID>  (1) 
DB09325

>  <DRUG_GROUPS>  (1) 
approved

>  <EXACT_MASS>  (1) 
41.98817288

>  <FORMULA>  (1) 
FNa

>  <GENERIC_NAME>  (1) 
Sodium fluoride

>  <INCHI_IDENTIFIER>  (1) 
InChI=1S/FH.Na/h1H;/q;+1/p-1

>  <INCHI_KEY>  (1) 
PUZPDOWCWNUUKD-UHFFFAOYSA-M

>  <JCHEM_ACCEPTOR_COUNT>  (1) 
0

>  <JCHEM_AVERAGE_POLARIZABILITY>  (1) 
1.7784

>  <JCHEM_BIOAVAILABILITY>  (1) 
1

>  <JCHEM_DONOR_COUNT>  (1) 
0

>  <JCHEM_FORMAL_CHARGE>  (1) 
0

>  <JCHEM_GHOSE_FILTER>  (1) 
0

>  <JCHEM_IUPAC>  (1) 
sodium fluoride

>  <JCHEM_LOGP>  (1) 
-0.77

>  <JCHEM_MDDR_LIKE_RULE>  (1) 
0

>  <JCHEM_NUMBER_OF_RINGS>  (1) 
0

>  <JCHEM_PHYSIOLOGICAL_CHARGE>  (1) 
-1

>  <JCHEM_PKA_STRONGEST_ACIDIC>  (1) 
3.1699999999999995

>  <JCHEM_POLAR_SURFACE_AREA>  (1) 
0

>  <JCHEM_REFRACTIVITY>  (1) 
0

>  <JCHEM_ROTATABLE_BOND_COUNT>  (1) 
0

>  <JCHEM_RULE_OF_FIVE>  (1) 
1

>  <JCHEM_TRADITIONAL_IUPAC>  (1) 
sodium fluoride

>  <JCHEM_VEBER_RULE>  (1) 
1

>  <MOLECULAR_WEIGHT>  (1) 
41.9882

>  <PRODUCTS>  (1) 
0.2% Sodium Fluoride Weekly Oral Rinse; 1.1% Neutral Sodium Fluoride Topical Gel; 2080 K Ginger Mint; 2080 K Herbal Mint; 2080 K Original; 60 Second Gel Bubblegum; 60 Second Gel Grape; 60 Second Gel Mint; 60 Second Gel Orange Cream; 60 Second Gel Strawberry; 60 Second Taste Bubblegum; 60 Second Taste Chocolate Vanilla; 60 Second Taste Groovy Grape; 60 Second Taste Marshmallow; 60 Second Taste Mint; 60 Second Taste Orange Twist; 60 Second Taste Strawberry; 60-Second Fluoride Bubble Gum; 60-Second Fluoride Cherry; 60-Second Fluoride Mint; 60-Second Fluoride Orange Cream; 60-Second Fluoride Pina Colada; ACT Anticavity Fluoride Cinnamon; ACT Anticavity Fluoride Kids Bubblegum; ACT Anticavity Fluoride Kids Spongebob; ACT Anticavity Fluoride Mint; ACT Anticavity Fluoride Rinse Kids Scooby Doo; ACT Braces Care Anticavity; ACT Dry Mouth Anticavity Fluoride; ACT Kids Anticavity Fluoride Fruit Punch; ACT Kids Anticavity Fluoride Wild Watermelon; ACT Restoring Anticavity Fluoride Cool Mint; ACT Restoring Anticavity Fluoride Cool Splash Vanilla Mint; ACT Restoring Anticavity Fluoride Mint Burst; ACT Restoring Anticavity Fluoride Mouthwash Cool Splash Spearmint 2X; ACT Restoring Anticavity Fluoride Spearmint; ACT Total Care Anticavity Fluoride Fresh Mint; ACT Total Care Anticavity Fluoride Icy Clean Mint; ACT Total Care Dry Mouth Anticavity Mouth; ACT Total Care Sensitive Anticavity Mint Mouth; ACT Total Care Sensitive Anticavity Tropical Mouth; AIM Cavity Protection Multi Benefit; AIM Whitening with Baking Soda; ATOMY PROPOLIS TOOTHPAS TE 200g; ATOMY PROPOLIS TOOTHPAS TE 50g; Acclean; Acclean 60 Second Fluoride Treatment; Acclean 60 Second Fluoride Treatment 1.23% APF; Acclean Dual Fluoride Rinse 1.24% APF Bubblegum; Acclean Dual Fluoride Rinse Part B 1.24% Mint; Acclean Plus; Act Fluoride; Act Total Care Anticavity Fluoride Fresh Mint; Advance White Breath Freshening Tartar Control; Advance White Extreme Whitening Tartar Control; Advance White Tartar Control Breath Freshening; Advanced Whitening Anti Cavity Fluoride; Aim - Tpt Gel 0.23%; Aim Bubble Berry; Aim Cavity Protection Multi Benefit; Aim Cavity Protection With Whitening; Aim Sensitive Cavity Protection; Aim Tartar Control Plus Mouthwash and Whitening; Alcohol Free Refreshing Mint; Alcohol-Free Anticavity; Alpha-Pro; Amar Advanced Whitening; AmerFresh; Amerfresh; Amerfresh Clear; Amerfresh Fluoride; American Sales Company CareOne; Amhealer; Anti Cavity Rinse; Anticavity; Anticavity Fluoride; Anticavity Fluoride Rinse; Anticavity Juicy mint; Anticavity Rinse; Anticavity Rinse Fluoride Rinse; Ap-24; Aquafresh Advanced 2x Enamel; Aquafresh Advanced 2x Whitening; Aquafresh Advanced Freshmint Toothpaste; Aquafresh Advanced Whitening Toothpaste; Aquafresh Big Kids; Aquafresh Cavity Protection; Aquafresh Extra Fresh Plus Whitening; Aquafresh Extreme Clean Deep Action; Aquafresh Extreme Clean Freshening Action; Aquafresh Extreme Clean Revitalizing Action; Aquafresh Extreme Clean Whitening Action; Aquafresh Freshmint; Aquafresh Freshmint Pump Tpt 0.22%; Aquafresh Freshmint Toothpaste - 0.221%; Aquafresh Freshmint Tpt 0.22%; Aquafresh Multi Action Whitening; Aquafresh Pure Breath Action; Aquafresh Sensitive Maximum Strength; Aquafresh Tartar Control Whitening; Aquafresh Ultimate White; Aquafresh Whitening Multi Action; Aquafresh Whitening Striped Gel Toothpaste; Aquapick Whitening Bubblepick; Aquapick Whitening Tooth Foam; Arm & Hammer Dental Care Freshmint Gel 0.243%; Arm & Hammer Dental Care Freshmint Tpt .243%; Arm & Hammer Dental Care Gel 0.243%; Arm & Hammer Dental Care Paste 0.243%; Arm & Hammer Dental Care Smooth Spearmint; Arm and Hammer Orajel Sensitive Freshening with Flavor Burst; Atomy Propolis 200g; Atomy Propolis 50g; Atomy Toothpaste; Barbie Striped Fluoride; Beam; Beyond Antiseptic Mouthwash; Big Lots Sound Body; Binaca Fluoride Anticavity Mouthwash; Biotene Fresh Mint Original; Biotene Gentle Mint; Biotene PBF; BlanX Advanced Whitening; BlanX Intensive Stain Removal; BlancTis Clinic (10%); BlancTis Clinic (15%); Bob The Builder Toothpaste; BreathRx with Zytex; Bright Smiles; BriteSmile Whitening; Brushbuddies Shopkins Anticavity Fluoride; Budget Dental Foam Fluoride-1.23%; Budget Dental Prophy Paste-coarse Grit; Burkhart; Burkhart Neutral; Burkhart Neutral pH; Burst Wonderfully Whitening Anti Cavity; Business Elite Amenity; COLGATE PROCLINICAL - Sparkling Mint; CTx3 Rinse Citrus; CTx3 Rinse Grape; CTx3 Rinse Mint; CTx4 Gel 1100 Citrus; CTx4 Gel 1100 Grape; CTx4 Gel 1100 Mint; CTx4 Gel 5000 Citrus; CTx4 Gel 5000 Mint; CTx4 Rinse Apple; CTx4 Rinse Mint; CVS Complete Health Premium; CVS Pharmacy Always White; CVS Pharmacy Brilliant White; CVS Pharmacy Dry Mouth; CVS Pharmacy Enamel Guard; Cardinal Health Fluoride Anticavity; Care One Maximum Strength; CaviRinse; Cepacol Mouthwash With Fluoride; Cepacol Peppermint Mouthwash With Fluoride; Charm Tex; CinnaFresh Anti-cavity; CleanAFNaturalAnticavityToothpaste; Clear QQ; Clinpro 5000; Clinpro Tooth Creme; CloSYS; CloSYS Fluoride Rinse; CloSYS Sulfate Free Fluoride; Close Up Anticavity Toothpaste; Close Up Fluoride Gel-0.23%; Close Up Fluoride Paste - Tpt 0.23%; Close Up Freshening With Mouthwash; Close Up Whitening With Mouthwash; Colgate; Colgate 2in1 Icy Blast; Colgate 2in1 Whitening Stain Lifters; Colgate Advanced Sensitive Plus Whitening; Colgate Advanced Whitening Fluoride; Colgate Bakugan Fluoride Mild Bubblefruit Flavor; Colgate Cavity Protection; Colgate Deep Clean Fluoride; Colgate Dora the Explorer Mild Bubblefruit Flavor; Colgate Dry Mouth Relief; Colgate Enamel Health Mineral Repair; Colgate Enamel Health Mouthwash; Colgate Enamel Health Sensitivity MultiProtect; Colgate Enamel Health Sensitivity Relief; Colgate Enamel Health Whitening; Colgate Fluoride - Blaze - Mild Bubble Fruit; Colgate Fluoride - Trolls - Mild Bubble Fruit; Colgate Fluoride Gel Toothpaste - Mint 0.243%; Colgate Fluoride Gel Toothpaste 0.243%; Colgate Fluoride Toothpaste 0.243%; Colgate Fluoride Toothpaste-Peppa Pig-Mild Bubble Fruit; Colgate Fluoride Toothpaste-mint 0.243%; Colgate Fluoride Whitening - Reviving Mint; Colgate Fresh Confidence With Whitening Fluoride Toothpaste; Colgate Fresh Mint; Colgate Fresh N Protect Mild Mint; Colgate Jr Littlest Pet Shop; Colgate Junior - Pink Sparkle; Colgate Junior Bubble Fruit; Colgate Junior Bubblefruit; Colgate Junior Dora; Colgate Junior Fresh Protect; Colgate Junior Mixed Kids Bubble Fruit Fluoride; Colgate Junior Sponge Bob; Colgate Junior Transformers; Colgate Kids 2in1 Strawberry; Colgate Kids Bubblefruit; Colgate Kids Bubblegum Swirl; Colgate Kids Halloween Wicked Watermelon; Colgate Kids Mild Bubble Fruit Flavor; Colgate Kids Minions Mouthwash; Colgate Kids Trolls Alcohol Free Anti-Cavity Sparkle Time Bubble Fruit; Colgate Kids Watermelon Flavor; Colgate Liquid Gel Toothpaste - Fresh Mint; Colgate Liquid Gel Toothpaste - Winterfresh; Colgate Liquid Gel Toothpaste Kids 2 In 1; Colgate Luminous Crystal Fluoride; Colgate Max Clean Effervescent Mint; Colgate Max Clean Effervescent Mint Fluoride; Colgate Max Clean Spearmint Blast; Colgate Max Fresh Clean Mint; Colgate Max Fresh Cool Mint; Colgate Max Fresh Intense; Colgate Max White Crystal Mint; Colgate Max White Polar Rush; Colgate Max White With Mini Bright Strips Crystal Mint; Colgate MaxFresh Anticavity Fluoride Electric Mint; Colgate MaxFresh CoolScrub Mintblast with Whitening; Colgate MaxFresh Fresh Mint; Colgate MaxFresh Intense Mint; Colgate MaxFresh with Mini Breath Clean Mint; Colgate MaxFresh with Mini Breath Cool Mint; Colgate MaxFresh with Whitening KnockOut Fluoride; Colgate Minions Mild Bubble Fruit Fluoride; Colgate Monster High Mild Bubble Fruit; Colgate Optic White Stain Fighter Clean Mint; Colgate Optic White Stain Fighter Fresh Mint; Colgate Phos-Flur Ortho Defense Alcohol Free Anticavity Gushing Grape Fluoride; Colgate Phos-Flur Ortho Defense Alcohol Free Anticavity Mint Fluoride; Colgate Proclinical - Clean Mint; Colgate Sensitive Complete Protection; Colgate Sensitive Enamel Protect; Colgate Sensitive Lasting Fresh Mint Burst; Colgate Sensitive Maximum Strength Mint Clean; Colgate Sensitive Maximum Strength Whitening; Colgate Sensitive Multiprotection; Colgate Sensitive Prevent and Repair; Colgate Sensitive Pro Relief; Colgate Sensitive Pro Relief Whitening; Colgate Sensitive Smart White Fresh Mint; Colgate Sensitive Smartfoam With Whitening; Colgate Sensitive Whitening Fresh Mint; Colgate Sensitive Whitening for Sensitive Teeth and Cavity Protection; Colgate Sensitive multiprotection for Sensitive Teeth and Cavity Protection; Colgate Sparkling White CinnaMint Fluoride; Colgate Sparkling White Cinnamint; Colgate SpongeBob SquarePants; Colgate Superstar Toothpaste-tpt 3.281 mg/ml; Colgate Tartar Control Whitening Crisp Mint; Colgate Tartar Protection Whitening Fluoride Cool Mint; Colgate Total - Advanced Health; Colgate Total 12h Pro-shield; Colgate Total Advance Whitening; Colgate Total Advanced Clean; Colgate Total Advanced Deep Clean; Colgate Total Advanced Fresh plus Whitening; Colgate Total Advanced Health Daily Repair; Colgate Total Advanced Health Gum Defense; Colgate Total Advanced Health Sensitive; Colgate Total Advanced Whitening; Colgate Total Clean Mint ANTIGINGIVITIS; Colgate Total Clean in Between; Colgate Total Daily Repair; Colgate Total Fresh Mint Stripe; Colgate Total Lasting White Polar Freshmint; Colgate Total Tpt; Colgate Total Whitening; Colgate Total Whitening Gel; Colgate Transformers Mild Bubblefruit Flavor; Colgate Trilple Accion; Colgate Triple Action; Colgate Triple Action Original Mint Fluoride; Colgate Turtles Mild Bubble Fruit; Colgate Ultra Brite Advanced Whitening All In One Clean Mint; Colgate UltraBrite Advanced Whitening Anticavity Fluoride Clean Mint; Colgate Winter Watermelon Flavor; Complete Care Plus Enamel Strengthening; Complete Care Tartar Control Plus Whitening Baking Soda and Peroxide; Complete Health Anticavity Fluoride Clean Mint; Complete Health Anticavity Fluoride Fresh Mint; ControlRx; ControlRx Multi; Coral; Country Gent; Crayola SQUEEZE-A-COLOR; Crest; Crest 3D White; Crest 3D White Advanced Vivid Enamel Renewal; Crest 3D White Advanced Vivid Invigorating Mint; Crest 3D White Advanced Vivid Refreshing Mint; Crest 3D White Arctic Fresh; Crest 3D White Brilliance; Crest 3D White Enamel Renewal; Crest 3D White Glamorous White; Crest 3D White LUXE LUSTROUS SHINE; Crest 3D White Luxe; Crest 3D White Luxe Diamond Strong; Crest 3D White Radiant Mint; Crest 3D White Vivid Radiant Mint; Crest 3D White Whitening Therapy Enamel Care; Crest 3DWhite Whitening Therapy Sensitivity Care; Crest Anti-Cavity Regular; Crest Anti-cavity; Crest Anticavity Fluoride; Crest Anticavity Kit; Crest Baking Soda and Peroxide Whitening with Tartar Protection; Crest Be Adventurous; Crest Be Dynamic; Crest Be Inspired; Crest Blue Bubble Gum; Crest Cavity Protection Cool Mint Gel; Crest Cavity Protection Regular; Crest Clean Mint Dentifrice 0.243%; Crest Complete Deep Clean; Crest Complete Multi Benefit Whitening plus Scope Minty Fresh Gel; Crest Complete Multi-Benefit Extra White plus Scope dual blast fresh mint blast; Crest Complete Multi-Benefit Extra Whitening with Tartar Protection; Crest Complete Multi-Benefit Plus Scope; Crest Complete Multi-Benefit Tartar Control Whitening Plus Scope; Crest Complete Multi-Benefit Whitening Plus Cinnamon Expressions; Crest Complete Multi-Benefit Whitening Plus Herbal Mint Expressions; Crest Complete Multi-Benefit Whitening Plus Scope; Crest Complete Multi-Benefit Whitening plus Cinnamon Expressions; Crest Complete Multi-Benefit Whitening plus Deep Clean; Crest Complete Multi-Benefit Whitening plus Scope; Crest Complete Multi-benefit Tartar Control Whitening Plus Scope; Crest Complete Multi-benefit Whitening plus Scope; Crest Expressions Scope; Crest Extra White plus Scope Outlast Long Lasting Mint; Crest Fresh and White; Crest Minty Breeze; Crest Moisturizing; Crest Pro-Health Advanced Active Strengthening; Crest Pro-Health Advanced w/Extra Deep Clean; Crest Pro-Health Advanced w/Extra Whitening; Crest Pro-Health Advanced with Extra Tartar Protection; Crest Pro-Health Anticavity Fluoride Rinse; Crest Pro-Health Complete (Clean Mint); Crest Pro-Health Complete (Fresh Mint); Crest Pro-Health For Me; Crest Pro-Health For Me Anticavity Fluoride; Crest Pro-Health Jr; Crest Pro-Health Stages; Crest Sensi-Care; Crest Sensi-Namel; Crest Sensi-Relief; Crest Sensitivity Clinical Sensitivity Relief; Crest Tartar Protection; Crest Tartar Protection Fresh Mint Gel; Crest Tartar Protection Whitening; Crest Ultra Dentifrice TPT 0.243%; Crest Wild Expressions Burstin Bubblegum; Crest plus Scope and extra whitening Mint Splash; Cvs Enamel Guard; Cvs Extra Whitening; Cvs Maximum Strength; DR. Fresh Dailies Travel; DR.Fresh Kids Pediatric; Darby Topical Sodium Fluoride; Darby Topical Sodium Fluoride Bubble Gum; Darby Topical Sodium Fluoride Mint; Darby Topical Sodium Fluoride Strawberry; Darby Topical Sodium Fluoride Watermelon; DawnMist Fluoride; Dawnmist; Dawnmist Fluoride; Dedicated Brand Premium Top. Foam Fluoride; DenTek Looney Tunes Kids Bubblegum Blast; Denpo cavity prevention; Denta 5000 Plus; DentaGel; Dental Care Advance Cleaning Maximun Baking Soda; Dental Clear Natural; Dental Clinic 2080 K Citrus Cool Mint; Dental Clinic 2080 K Strong Winter Green; Dental Floss With Fluoride 0.15mg/45cm; Dental Gel for Kids - Tasty Fruit Flavour 0.221%; Dental Kits 1; Dental Kits 2; Dental Pro; Dental Tape W Sodium Fluoride 0.15mg/45cm; Dentalux Complex 5; Denti-Care Denti-Foam Topical Sodium Fluoride Bubble Gum; Denti-Care Denti-Foam Topical Sodium Fluoride Grape; Denti-Care Denti-Foam Topical Sodium Fluoride Mint; Denti-Care Denti-Foam Topical Sodium Fluoride Orange; Denti-Care Denti-Foam Topical Sodium Fluoride Raspberry; Denti-Care Denti-Foam Topical Sodium Fluoride Strawberry; Denti-Care Denti-Pro Topical Sodium Fluoride 60 Second; Denti-Care Denti-Rinse Neutral Sodium Fluoride Oral Rinse; Denti-Care Denti-Rinse Neutral Sodium Fluoride Oral Rinse Berry; Denti-Care Topical Fluoride Foam Bubble Gum; Denti-Care Topical Fluoride Foam Grape; Denti-Care Topical Fluoride Foam Orange; Denti-Care Topical Fluoride Foam Raspberry; Denti-Care Topical Sodium Fluoride Strawberry; Denti-care Acidulated Phosphate Fluoride; Denti-care Anti-cavity Sodium Fluoride Oral Rinse; DentiCare Denti-Pro; DentiCare Pro-Foam; DentiCare Pro-Gel; DentiCare Pro-Rinse; Dentisse; Dentree; Dinosaur Gel Toothpaste; Dio Pororo Kids Foaming; Discount Drug Mart Anticavity Fluoride Rinse Mint Flavor; Doctor-Clean; Dollar General Maximum Strength; Dollar General Radiant White; Dr Dental Care 250ml; Dr Dental Care 750ml; Dr Dental Care 80ml; Dr Tichenors Toothpaste With Extra Whitening and Tartar Control; Dr. Fresh Brush and Cover; Dr. Sheffield Fluoride Anticavity; Duraphat; E-Z Cups; Electrifying Blue Polish; Enamel Health Multi-Protection; Equate Anticavity Oral Rinse; Escavite; FIREFLY Barbie Fluoride Foam Bubblegum Flavor; FIREFLY MARVEL Ultimate SPIDER-MAN Fluoride Foam Bubblegum Flavor; Family Dollar Complete Protection Anticavity Mouthwash; Family Wellness Sensitive Extra Whitening; Fidelis Apf; Firefly Angry Birds Fluoride; Firefly Mouth Swoosh Anti-Cavity Fluoride Rinse; Floam Aer 1.23%; Floam Topical Floam Fluoride; Flor-Opal Sustained-Release Fluoride; Floriva; Floriva Plus; Fluor-a-day; Fluorbon Drops; FluoriMax 5000; FluoriMax 5000 Sensitive; FluoriSHIELD; Fluoride; Fluoride Drops; Fluoride Gel; Fluoride Gel 1.23%; Fluoride Mouth Rinse Anticavity; Fluoride Mouthwash; Fluoride Rinse for Kids; Fluoride Treatment; Fluoridex; Fluoridrops; Fluorishield; Fluoritab Chewable Cherry; Fluoritabs Chewable 2.21mg; Fluorosol Drops; Fluorzoin 0.05% Sodium Fluoride Oral Rinse; Fluorzoin 1.23% Topical Fluoride Ion Foam; Fluotic; Flura Drops 2.21mg/0.2ml; Flura-drops; FreshDent Kids Strawberry Anticavity Tooth; FreshMax Fluoride Kids; Freshmint Anticavity Fluoride Gel Toothpaste; Freshmint Anticavity Fluoride Toothpaste; Freshmint Premium Anticavity; Freshmint Premium Anticavity Gel; Freshmint Sensitive; Freshmint Sensitive Toothpaste; Freshmist Sensitive Toothpaste; G.U.m; Gel 7 Neutral Topical Fluoride Gel Mint; Gel 7 Neutral Topical Fluoride Gel Strawberry; Gel-kam Fluorocare Part A - Mint Flav Liq; Gel-kam Fluorocare Part A-bubblegum; Gel-kam Fluorocare Part A-mint Flavour; Gelato APF; Gelato Homecare Vivid Neutral; Gelato Neutral PH; Gelato Neutral pH; Genesis Sensitive Fresh Mint; Glister Fluoride Toothpaste 0.22%; Glister Multi-Action Fluoride Toothpaste; Glitter; Glowing White; GoGlama NaF RNS Mint; Goodsense Sensitive Extra Whitening; Greenco; Gum; Handy Solutions Crest Cavity Protection FLUORIDE ANTICAVITY; Handy Solutions Crest Complete MULTI-BENEFIT WHITENING plus Scope; Handy Solutions Kidz Crest Sparkle Fun; Handy Solutions Mint Fluoride Tooth; Hanip Gargle apple fragrance; Hanip Gargle pine fragrance; Health-dent; Heb Extra Whitening; Heb Hebuddy; Heb Radiant White; Hello; Hello Kitty; Henry Schein 2% Neutral Topical Foam Fluoride; Henry Schein Prophy Paste With Fluoride - Coarse Grit; Henry Schein Prophy Paste With Fluoride - Fine Grit; Henry Schein Prophy Paste With Fluoride - Medium Grit; Henry Schein Topical Foam Fluoride; House Living; HyVee Brilliant White; HyVee Inc Maximum Strength; HyVee Maximum Strength; Hyvee Anticavity Mint; Hyvee Complete Care Fresh Mint; International Business Amenity Kit; International First Amenity Kit; Interplak Den Gel W Fluoride 0.24%; Iodent Animal Kingdom Bubble Gum; Iodent Animal Kingdom Fruity; Iodent Sensitive Extra Whitening; Iodent Sensitive Fresh Mint; Ionite APF; Ionite APF Foam; Ionite APF Neutral; Ionite H; Ionite R; Iris 60 Second APF; Johnson & Johnson Reach Dental Floss W.naf; Johnson and John.dental Floss Fluoride Mint; Just Right; KMart Corporation Radiant White; Karidium Apf Gel Cherry Flav; Karidium Liquid; Karidium Tab 1mg; Karigel; Kids Anticavity; Kids Anticavity Post-Brush Fluoride Rinse; Kids Crest Bubblegum Flavor; Kids Crest Cavity Protection; Kids Crest Cavity Protection Sparkle Fun; Kids Crest Grape Flavor; Kids Crest Sesame Street; Kids Crest Spiderman; Kids Flouride Rinse; Kids Toothpaste; Kirkland Signature Pro-complete Plus Whitening; Kit 2; Kit1; Kmart Corporation Maximum Strength; Koala Pals Berrylicious; Kolorz; Kroger Extra Whitening; Kroger Kids Anticavity Fluoride Mixed Berry; Kroger Sensitive; Laura Lynn Anticavity; Laura Lynn Anticavity Whitening plus Mouthwash; Laura Lynn Extra Whitening Sensitive; Listerine Fluoride Defense Anticavity mint Shield; Listerine Healthy White Anticavity Fluoride Gentle Clean Mint; Listerine HealthyWhite Anticavity Mouthrinse Vibrant - Clean Mint; Listerine HealthyWhite Restoring Clean Mint; Listerine Naturals Anticavity - Herbal Mint; Listerine Smart Anticavity - Frozen Bubble Blast; Listerine Smart Rinse Anticavity Rinse - Frozen Bubble Blast; Listerine Smart Rinse Barbie; Listerine Smart Rinse Berry Shield; Listerine Smart Rinse Bubble Gum Shield; Listerine Smart Rinse Mint Shield; Listerine Smart Rinse Phineas and Ferb Bubble Blast; Listerine SmartRinse Anticavity Fluoride Rinse Avengers; Listerine SmartRinse Anticavity Rinse Disney Princess Fab BubbleGum; Listerine Total Care Anticavity - Fresh Mint; Listerine Total Care Anticavity Cinnamint; Listerine Total Care Fresh Mint Anticavity; Listerine Total Care Plus Whitening; Listerine Total Care Stain Remover Anti cavity Freshmint; Listerine Total Care Zero Alcohol Anticavity Fresh Mint; Listerine Total Care Zero Anticavity Fresh Mint; Listerine Total Care Zero FreshMint; Listerine Whitening Anticavity Vibrant - Clean Mint; Listerine Whitening Restoring; Live Better Extra Whitening; Lornamead Natural White; Lucky Super Soft Sensitive; Ludent; Luster Now Instant Whitening; MEDIAN New Forest; MEDIAN New Marine fluoride; MIPaste ONE; MIPaste Plus; MIPaste Plus Strawberry; MS Neutral pH; MVC-Fluoride; Macleans Mint Toothpaste (tube) 0.243%; Mastic Dent; Mastic Dent Oulo Action; Mastic Dent Whitening; Maximum Security; Maximum Strength Sensitive Soothing Mint; Maximum Strength Sensitive True Mint; Maxixum Security Gel Toothpaste; MediChoice Premium Anticavity Fluoride; Medichoice Anticavity Fluoride; MegaFresh; Meijer Brilliant White; Meijer Maximum Strength; Mentadent Advanced Breath Freshening; Mentadent Advanced Whitening; MintBlast Anti Cavity Fluoride; Morning Fresh; Mouth Rinse; Ms Apf; Multi Vitamin Drops with Fluoride; Multi Vitamin Drops with Fluoride and Iron; Multi Vitamin Drops with Fluoride with Iron; Multi Vitamin and Fluoride; Multi Vitamin with Fluoride; Multi Vitamin, Iron and Fluoride; Multi-Vit with Fluoride; Multi-Vit with Fluoride and Iron; Multi-Vitamin Drops with Fluoride and Iron; Multi-Vitamin Fluoride; Multi-Vitamin With Fluoride; Multi-Vitamin with Fluoride; MultiVitamin Drops with Fluoride and Iron; Multivitamin Drops with Fluoride; Multivitamin with Fluoride; Multivitamin with fluoride; Mvc; NAFRINSE PACKETSKIT Bubble Gum; NAFRINSE PACKETSKIT Grape; NEUTRAMAXX 5000 Tri-Calcium Phosphate; NUPRO 60 Second Fluoride Foam; Nafrinse Packets Bubble Gum; Nafrinse Packets Grape; Nafrinse Packets Mint; Nafrinse Packets Very Berry; Nafrinse Packetskit Mint; Nafrinse Packetskit Very Berry; Nafrinse Unit Dose Bubble Gum; Nafrinse Unit Dose Fluoride; Nafrinse Unit Dose Mint Flavor; Nafrinse Unit Dose Verry Berry; Natural Fluoride Fresh Mint cavity protection whitening fresh breath; Natural White Extreme Whitening Gel Toothpaste; Natural White Pro Daily Clean & Polish Gel Toothpaste; Natural White Pro Daily Clean & Polish Toothpaste; Natural White Pro Daily Clean and Polish Gel Toothpaste; Natural White Pro Daily Clean and Polish Toothpaste; Natural White Pro Sensitive Clean and Polish Toothtpaste; Natural White Radiant White; Natural White Whitening Toothpaste Extreme Whitening; Natures Smile; Neutra Maxx 5000; Neutragel; Neutral 2% Sodium Fluoride In-office Rinse; Neutral Rinse; Neutral Sodium Fluoride; Neutral Topical; Neutramaxx 5000 Plus Turbo; Neutramaxx 5000 Tcp; Neutrarinse 2% Neutral Sodium Floride Oral Rinse Raspberry Splash; Neutrarinse 2% Neutral Sodium Floride Oral Rinse RefreshMint; Neutrarinse 2% Neutral Sodium Floride Oral Rinse White Grape; Nrg Apf; Nupro Apf Topical Gel; Nupro Topical Sodium Fluoride Neutral - Gel; O-Cal FA multivitamin; Olidental Check Gargle; Olidental Gargle; Opalescence PF; Opalescence Plus; Opalescence Sensitivity Relief Whitening; Opalescence Whitening Toothpaste; Ora 2 stain clear; OraBrite; Orajel Anticavity; Orajel Anticavity Fluoride Rinse Alcohol and Sugar Free; Orajel Fluoride; Orajel Kids My Way Anticavity; Orajel Kids My Way Anticavity Toothpaste; Oral Antivavity; Oral B Anti-bacterial With Fluoride; Oral B Minute-Foam Bubble Gum; Oral B Minute-Foam Grape; Oral B Minute-Foam Mellow Mint; Oral B Minute-Foam Orange-A-Tangy; Oral B Minute-Foam Strawberry; Oral B Neutra Foam Mint Menthe; Oral B NeutraCare Mint Menthe; Oral Defense; Oral Defense Fluoride Rinse; Oral Plan Antibacterial Dental Floss; Oral Plan Antibacterial Mouthrinse With Fluoride; Oral-B Anti-bacterial With Fluoride; Oral-B Anti-cavity Dental Rinse .05%; Oral-B Antibacterial With Fluoride Alc.free; Oral-B Anticavity; Oral-B Fluorinse Mint; Oral-B Minute Gel; Oral-B Minute-Foam Banana Splitz; Oral-B Minute-Foam Bubble Gum; Oral-B Minute-Foam Grape Punch; Oral-B Minute-Foam Mellow Mint; Oral-B Minute-Foam Orang-A-Tangy; Oral-B Minute-Foam Strawberry; Oral-B Neutra-Foam Mint; Oral-B NeutraCare Mint; Oral-B Sensitive With Fluoride Toothpaste; OralLine; OralLine Kids; OralLine Secure; Orbitol Whitening; OroMin; Ortho Guard; OrthoWash; Orthocheck; Oxykids Bubblegum Toothpaste With Fluoride; PCXX Home Treatment 1.1; PCxx; PCxx NaF RNS Mint; PERIOSCIENCES White Care AO Pro; PINE SALT 140g; PINE SALT 170g; Pcxx Anticaries No Flavor Ne G; Pcxx Apf Rns Grape; Pcxx Apf Rns Mint; Pcxx Apf Rns Strawberry; Pcxx Bubblegum Apf F; Pcxx Bugglegum Neutral Gl; Pcxx Cappuccino Apf F; Pcxx Cherry Apf F; Pcxx Grape Apf F; Pcxx Minute Fm Lime; Pcxx Neutral Foam Bazooka Bubblegum; Pcxx Neutral Gel Cool Peppermint; Pcxx Neutral Gel Creme De Menthe; Pcxx Neutral Gel Mocha Capuccino; Pcxx Neutral Gel Pina Colada; Pcxx Neutral Gel Raspberry Blast; Pcxx Neutral Gel Vanilla Orange; Pcxx Neutral Gel Watermelon Splash; Pcxx Neutral Rms Bubblegum; Pcxx Neutral Rns Grape; Pcxx Neutral Rns Strawberry; Pcxx Neutral Rns Watermelon; Pcxx One Minte Bazooka Bubblegum; Pcxx One Minte Gel Banana Berry; Pcxx One Minte Gel Cool Peppermint; Pcxx One Minte Gel Creme De Menthe; Pcxx One Minte Gel Grape Explosion; Pcxx One Minte Gel Luscious Lime; Pcxx One Minte Gel Marshmallow Float; Pcxx One Minte Gel Mocha Cappuccino; Pcxx One Minte Gel Raspberry Blast; Pcxx One Minte Gel Rootbeer; Pcxx One Minte Gel Strawberry Blast; Pcxx One Minte Gel Vanilla Orange; Pcxx One Minte Gel Watermelon Splash; Pcxx One Minute Cool Peppermint; Pcxx Peppermint Apf F; Pcxx Peppermint Neutral F; Pcxx Pina Colada Apf G; Pcxx Raspberry Apf F; Pcxx Remin 0.4; Pcxx Rootbeer Apf F; Pcxx Strawberry Apf F; Pcxx Strawberry Neutral F; Pcxx Vanilla Orange Neutral F; Pcxx Vanilla Orange One Minute Fm; Pcxx Wild Cherry Apf G; Pdf 0.2% Rince Dent Hebdo; Pdf Rince Dents 0.05%; Peanuts Anti-cavity Fluoride Toothpaste; Pearl Drops Stainfighting Baking Soda Tooth.; Pearl Drops Stainfighting Baking Soda Tpt; Pearl Drops Stainfighting Whitening Tpt; Pearl Drops Whitening Gel Toothpaste; Pearl White; Pearlie White; Pepsodent Complete Care Enamel-Safe WHITENING; Pepsodent Complete Care Original; Perfect Choice; Perfect Choice Brush-ON; Perfect Choice In-office Rinse Acidulated Phosphate Fluoride; Perfect Choice Neutral Sodium Fluoride Gel; Perfect Choice Prophy Paste; Perioselect Sodium Fluoride Solution 2%; Peroxie Care Tartar Control Healthy Gums Baking Soda and Peroxide; Phocal Apf; Phocal pHn; Phos-Flur; Phos-Flur Ortho Defense; Pine Salt; Plak Smacker; Plak Smacker Anti Cavity Fluoride; Plaque Hd Anticavity Berry Bubble Gum Flavor Professional Plaque-identifying; Plaque Hd Anticavity Fresh Mint Flavor Professional Plaque-identifying; Power White 7 Everyday Whitening; Power White 7 Sensitive; Power-Rangers DINO CHARGE; PreviDent; PreviDent 5000 Booster; PreviDent 5000 Booster Plus Fruitastic; PreviDent 5000 Dry Mouth; PreviDent 5000 Enamel Protect; PreviDent 5000 Plus Fruitastic; PreviDent 5000 Plus Spearmint; PreviDent 5000 Sensitive; PreviDent Alcohol Free; PreviDent Fresh Mint; PreviDent Very Berry; PrevidDent 5000 Booster Plus Spearmint; Primo APF; Pro-Den Rx; Pro-dent 1.1% Plus Neutral Sodium Fluoride Dentifrice; Pro-dentx 2% Neutral Sodium Fluoride Oral Rinse; Professional Whitening System Whitening; Professional Whitening System Whitening Mouth Wash; Propolis 200g; Propolis 50g; Pure Snow whitening; PureLife APF; Quality Choice Natural White; Rafluor New Age Gel 1.23%; Rain Breeze Toothpaste; Rapid White Whitening Gel Toothpaste With Soft Polish; Rapid White Whitening Toothpaste With Soft Polish; Reach Act Fluoride, Cinnamon; Reach Act Fluoride, Mint; Reach Act for Kids, Bubblegum; Reach Gentle Gum Care Fluoride Mint; Rembrandt Canker Sore Mint; Rembrandt Deeply White Plus Peroxide Whitening Fresh Mint; Rembrandt Gentle White Mint; Rembrandt Intense Stain Brilliant Mint; Rembrandt Whitening Mint Intense; Rite Aid Enamel Guard; Rite Aid Extra Whitening; Rite Aid Sensitive Mint; Rite Aid Sensitive Toothpaste Extra Whitening; SF 5000 Plus; SONGYUM New Pinesalt; SafetyMAXX Mint Flavor; Scotts Neutral pH; Scotts Select APF; Scotts Select Homecare; Sensitive Anti-cavity; Sensitive MultiProtection with Tartar Control; Sensitive Tooth Paste Multi Action; Sensitive Tooth Paste Whitening; Sensitive Tooth Polish; Sensitive Whitening Enamel Guard; Sensitive Whitening with Baking Soda; Sensitive With Fluoride Tpt; Sensodyne; Sensodyne CoolGel; Sensodyne Extra Whitening; Sensodyne Fresh Impact; Sensodyne Fresh Mint; Sensodyne Full Protection; Sensodyne Iso-active; Sensodyne Original Flavor; Sensodyne Pronamel; Sensodyne Pronamel 6 To 12 Years; Sensodyne Pronamel Daily Protection; Sensodyne Pronamel Fluoride Rinse; Sensodyne Pronamel Fresh Breath; Sensodyne Pronamel Gentle Whitening; Sensodyne Pronamel Iso-active; Sensodyne Pronamel Multi Action; Sensodyne Pronamel Strong and Bright Enamel Extra Fresh; Sensodyne Pronamel Strong and Bright Enamel Mint; Sensodyne Tartar Control; Sensodyne True white; Sensodyne-F Mint Toothpaste; Sf; Shark Toothpaste; Sheer FluorX PEDO Fluoride Treatment; SheerFluorX Fluoride Treatment; Shopkins Brush Buddies; Shopkins Bubble gum Mouth wash; Shopkins Mouth wash; Simply White clean mint; Simply White sweet mint; Smart Sense Alcohol Free; Smart Sense Anticavity; Smart Sense Enamel Guard; Smart Sense Maximum Strength; SmileActives Pro Whitening; SmileGuard Just 4 Me; SmileGuard Spider Sense Spider-Man Bubblegum; SmileGuard Strawberry Shortcake Bubblegum; Smiley Gripper; Sodium Fluoride; Sodium Fluoride Cherry; Sodium Fluoride Dps 6.9mg; Sodium Fluoride Tab 2.21mg Chewable; Sodium fluoride; Solu Flur Liq; SoonSoo gargle; Sorbet APF; Sorbet Neutral; Sparkle Fresh Anticavity; Spearmint and Peppermint PLAQUE A WAY Fluoride AnticavityGentle Formula Gentle Formula; Spider Sense Spider-Man Pediatric; SprinJene Fresh Boost; SprinJene White Boost; Spry Xylitol Cinnamon; Take Home Fluoride Cool Mint; Tanda pearl professional whitening; Teeth Desensitizing and Remineralizing Gel; Teledyne Water Pik Prophylaxis Paste- 1.23%; The Blue Toothbrush; The Cat In The Hat Toothpaste; The Gargle; The Natural Dentist Berry Blast; The Natural Dentist Groovy Grape; The Natural Dentist Orange Zest; The Natural Dentist Peppermint Twist; The Natural Dentist Sensitivity; The Natural Dentist Whitening; The White Toothbrush; Therabreath Toothpaste; Thixotropic Neutral Sodium Fluoride Top. Gel; Tiger Supply Inc APF; Toms Luminous White - Spearmint fights cavities whitening; Toms Luminous White Fluoride Clean Mint cavity protection / whitening; Toms Natural Anticavity Peppermint fights cavities freshens breath strengthens enamel; Toms Natural Enamel Strength Peppermint strengthens enamel / whitening / fights cavities / freshens breath / no artificial dyes or sweeteners; Toms Natural Maximum Strength Sensitive Soothing Mint clinically proven to reduce painful sensitivity / no artificial dyes or sweeteners; Toms Simply White Fluoride Clean Mint whitening / cavity protection; Toothpowder; Top Care Brilliant White; Top Care Enamel Guard; Top Quality Mfg APF; Topco Associates LLC Maximum Strength; Topical 60 Sec Sodium Fluoride Bubble Gum; Topical 60 Sec Sodium Fluoride Grape; Topical 60 Sec Sodium Fluoride Mint; Topical 60 Sec Sodium Fluoride Orange Cream; Topical 60 Sec Sodium Fluoride Strawberry; Topical Fluoride Foam Apple Cinnamon Flavour; Topical Fluoride Foam Bumble Bee Bubble Gum; Total Daily Repair; Total Whitening; Transcon First Amenity Kit; Tri Vi Flor Tab; Tri-Vit With Fluoride And Iron Drops; Tri-Vit with Fluoride Drops; Tri-Vitamin with Fluoride; Triple Vitamin Drops with Fluoride; Triple-Vitamin Drops with Fluoride; Truly Radiant Bright and Strong; Truly Radiant Clean and Fresh Fluoride Rinse; Truly Radiant Rejuvenating Whitening; Truly Radiant Whitening and Enamel Strengthening; Truly Radiant Whitening and Strengthening Rinse; Truly Radiant Whitening and Strengthening Rinse CLEAN AND FRESH; Tween Crest Cavity Protection; UPC 801803 00211 MegaFresh Gel Fluoride Tooth; UltraCare Alcohol Free; UltraCare Alcohol Free Fresh Mint; Up and UP Anticavity Toothpaste Whitening Plus Mouthwash; Up and UP Sensitive Toothpaste Enamel Strengthening formula; Up and UP Sensitive Toothpaste Enamel Strengthening formula plus whitening; Up and Up Anticavity Toothpaste Whitening; Up and Up Sensitive Maximum Strength Mint; Up and Up Sensitive Maximum Strength Whitening; Up and Up Sensitive Toothpaste; Up and Up Sensitive Toothpaste Whitening; VITAMINS A, C, D and FLUORIDE; Venus White Clean Mint Whitening; VividSensiGuard; Vortex; Wakefern Enamel Guard; Wakefern Maximum Strength; Wal-Mart Stores Inc. Equate; Walgreen Anticavity Whitening; Walgreen Sensitive Extra Whitening; Walgreens Anticavity and Antigingivitis Whitening; Walgreens Maximum Strength Sensitive Fluoride; Walgreens Radiant White; Walgreens Scooby Doo Fluoride Gel Toothpaste; Walgreens Sensitive Dura-namel; Walgreens Stain Care; Walgreens Sulfate Free; Western Family Cavity Control; Western Family Complete Whitening; Western Family Sensitive Whitening Fluoride; Western Family Tartar Control; Western Family Whitening; Western Family Whitening Plus Minty Fresh Mouthwash Anticavity; Whitening Foaming; Whitening Foaming-Toothpaste; Whitening Tooth Polish; Whitening Toothpaste Fresh Mint - P; Whitening Toothpaste Fresh Mint - T; Whole Care Orange Mango; Whole Care Peppermint; Whole Care Spearmint; Xerolube  Liq 0.0002%; Xerostom; Xylishield; ZOOBY Chocolate Chow; ZOOBY Gator Gum; ZOOBY Growlin Grrrape; ZOOBY Happy Hippo Cake; ZOOBY Spearmint Safari; ZOOBY Turtle Melon; Zap APF; Zap Neutral; Ziroxide Coarse Grit 1.23% Fluoride; Ziroxide Coarse Paste 1.23% Fluoride; Ziroxide Medium Fine Grit 1.23% Fluoride; Ziroxide Medium Fine Paste 1.23% Fluoride; Zohar finest Anticavity; Zoom Whitening Toothpaste; emmi dent Sodium Fluoride Anticavity Mild; fluorodine OXYGEN white Fluoride Anticavity; fluorodine ULTRA active Fluoride Anticavity; fluorodine ULTRA sensitive Fluoride Anticavity; iBrite; pH7 Gel Mint

>  <SMILES>  (1) 
[F-].[Na+]

$$$$
