16129681
     RDKit          2D

219224  0  0  1  0  0  0  0  0999 V2000
    9.1295   -0.2062    0.0000 S   0  0  0  0  0  0  0  0  0  0  0  0
    9.1295   -1.0312    0.0000 S   0  0  0  0  0  0  0  0  0  0  0  0
   14.8453   -3.5062    0.0000 O   0  0  0  0  0  0  0  0  0  0  0  0
   12.7018   -1.4437    0.0000 O   0  0  0  0  0  0  0  0  0  0  0  0
   11.9874   -1.0312    0.0000 O   0  0  0  0  0  0  0  0  0  0  0  0
   16.9887   -1.4437    0.0000 O   0  0  0  0  0  0  0  0  0  0  0  0
   10.5585   -3.5062    0.0000 O   0  0  0  0  0  0  0  0  0  0  0  0
   16.2742    1.4437    0.0000 O   0  0  0  0  0  0  0  0  0  0  0  0
    9.1295   -1.8562    0.0000 O   0  0  0  0  0  0  0  0  0  0  0  0
   12.7018    1.0312    0.0000 O   0  0  0  0  0  0  0  0  0  0  0  0
   11.9874    1.4437    0.0000 O   0  0  0  0  0  0  0  0  0  0  0  0
    5.9287   -1.2113    0.0000 O   0  0  0  0  0  0  0  0  0  0  0  0
   11.2729    1.0312    0.0000 O   0  0  0  0  0  0  0  0  0  0  0  0
    6.2716   -3.5062    0.0000 O   0  0  0  0  0  0  0  0  0  0  0  0
   14.8453    3.9187    0.0000 O   0  0  0  0  0  0  0  0  0  0  0  0
    4.1282   -1.4437    0.0000 O   0  0  0  0  0  0  0  0  0  0  0  0
    6.2716   -0.2062    0.0000 O   0  0  0  0  0  0  0  0  0  0  0  0
    9.3777    2.8509    0.0000 O   0  0  0  0  0  0  0  0  0  0  0  0
    6.9861    0.2062    0.0000 O   0  0  0  0  0  0  0  0  0  0  0  0
    8.4150    0.2062    0.0000 O   0  0  0  0  0  0  0  0  0  0  0  0
    6.4100    2.6487    0.0000 O   0  0  0  0  0  0  0  0  0  0  0  0
   14.1308   -2.2687    0.0000 N   0  0  0  0  0  0  0  0  0  0  0  0
   15.5597   -1.4437    0.0000 N   0  0  0  0  0  0  0  0  0  0  0  0
   11.9874   -2.6812    0.0000 N   0  0  0  0  0  0  0  0  0  0  0  0
   15.5597    0.2062    0.0000 N   0  0  0  0  0  0  0  0  0  0  0  0
   15.8617   -4.7683    0.0000 N   0  0  0  0  0  0  0  0  0  0  0  0
    9.8439   -2.2687    0.0000 N   0  0  0  0  0  0  0  0  0  0  0  0
   14.1308    1.0312    0.0000 N   0  0  0  0  0  0  0  0  0  0  0  0
   12.7018    2.6812    0.0000 N   0  0  0  0  0  0  0  0  0  0  0  0
   10.5585    2.2687    0.0000 N   0  0  0  0  0  0  0  0  0  0  0  0
    7.7006   -2.6812    0.0000 N   0  0  0  0  0  0  0  0  0  0  0  0
   11.9874   -5.9812    0.0000 N   0  0  0  0  0  0  0  0  0  0  0  0
    5.5572   -2.2687    0.0000 N   0  0  0  0  0  0  0  0  0  0  0  0
    9.1295    1.4437    0.0000 N   0  0  0  0  0  0  0  0  0  0  0  0
    9.8439    5.9812    0.0000 N   0  0  0  0  0  0  0  0  0  0  0  0
   13.4164    3.9187    0.0000 N   0  0  0  0  0  0  0  0  0  0  0  0
    6.9861   -1.4437    0.0000 N   0  0  0  0  0  0  0  0  0  0  0  0
    7.7527    3.1374    0.0000 N   0  0  0  0  0  0  0  0  0  0  0  0
    5.8456    4.1992    0.0000 N   0  0  0  0  0  0  0  0  0  0  0  0
   13.4164   -2.6812    0.0000 C   0  0  0  0  0  0  0  0  0  0  0  0
   15.5597   -2.2687    0.0000 C   0  0  0  0  0  0  0  0  0  0  0  0
   13.4164   -3.5062    0.0000 C   0  0  0  0  0  0  0  0  0  0  0  0
   16.2742   -2.6812    0.0000 C   0  0  0  0  0  0  0  0  0  0  0  0
   12.7018   -3.9187    0.0000 C   0  0  0  0  0  0  0  0  0  0  0  0
   14.8453   -2.6812    0.0000 C   0  0  0  0  0  0  0  0  0  0  0  0
   16.2742   -3.5062    0.0000 C   0  0  0  0  0  0  0  0  0  0  0  0
   11.2729   -2.2687    0.0000 C   0  0  0  0  0  0  0  0  0  0  0  0
   12.7018   -2.2687    0.0000 C   0  0  0  0  0  0  0  0  0  0  0  0
   16.2742   -0.2062    0.0000 C   0  0  0  0  0  0  0  0  0  0  0  0
   12.7018   -4.7437    0.0000 C   0  0  0  0  0  0  0  0  0  0  0  0
   16.2742   -1.0312    0.0000 C   0  0  0  0  0  0  0  0  0  0  0  0
   16.9381   -3.9877    0.0000 C   0  0  0  0  0  0  0  0  0  0  0  0
   11.2729   -1.4437    0.0000 C   0  0  0  0  0  0  0  0  0  0  0  0
   16.9887    0.2062    0.0000 C   0  0  0  0  0  0  0  0  0  0  0  0
   14.8453    1.4437    0.0000 C   0  0  0  0  0  0  0  0  0  0  0  0
   15.6103   -3.9877    0.0000 C   0  0  0  0  0  0  0  0  0  0  0  0
   10.5585   -2.6812    0.0000 C   0  0  0  0  0  0  0  0  0  0  0  0
   16.6818   -4.7718    0.0000 C   0  0  0  0  0  0  0  0  0  0  0  0
    9.1295   -2.6812    0.0000 C   0  0  0  0  0  0  0  0  0  0  0  0
   11.9874   -5.1562    0.0000 C   0  0  0  0  0  0  0  0  0  0  0  0
   11.2729    2.6812    0.0000 C   0  0  0  0  0  0  0  0  0  0  0  0
   15.5597    1.0312    0.0000 C   0  0  0  0  0  0  0  0  0  0  0  0
   11.2729    3.5062    0.0000 C   0  0  0  0  0  0  0  0  0  0  0  0
   14.8453    2.2687    0.0000 C   0  0  0  0  0  0  0  0  0  0  0  0
   13.4164    2.2687    0.0000 C   0  0  0  0  0  0  0  0  0  0  0  0
    9.1295   -3.5062    0.0000 C   0  0  0  0  0  0  0  0  0  0  0  0
   17.7031   -0.2062    0.0000 C   0  0  0  0  0  0  0  0  0  0  0  0
   17.7454   -3.8176    0.0000 C   0  0  0  0  0  0  0  0  0  0  0  0
   10.5585    3.9187    0.0000 C   0  0  0  0  0  0  0  0  0  0  0  0
   10.5585   -1.0312    0.0000 C   0  0  0  0  0  0  0  0  0  0  0  0
    8.4150   -2.2687    0.0000 C   0  0  0  0  0  0  0  0  0  0  0  0
   13.4164    1.4437    0.0000 C   0  0  0  0  0  0  0  0  0  0  0  0
   11.9874    2.2687    0.0000 C   0  0  0  0  0  0  0  0  0  0  0  0
   17.2328   -5.3859    0.0000 C   0  0  0  0  0  0  0  0  0  0  0  0
    6.9861   -2.2687    0.0000 C   0  0  0  0  0  0  0  0  0  0  0  0
   10.5585    4.7437    0.0000 C   0  0  0  0  0  0  0  0  0  0  0  0
   14.1308    2.6812    0.0000 C   0  0  0  0  0  0  0  0  0  0  0  0
   15.5597    2.6812    0.0000 C   0  0  0  0  0  0  0  0  0  0  0  0
   18.2963   -4.4316    0.0000 C   0  0  0  0  0  0  0  0  0  0  0  0
    8.7170   -4.2207    0.0000 C   0  0  0  0  0  0  0  0  0  0  0  0
    6.7039   -1.4934    0.0000 C   0  0  0  0  0  0  0  0  0  0  0  0
   18.0401   -5.2158    0.0000 C   0  0  0  0  0  0  0  0  0  0  0  0
   17.7031   -1.0312    0.0000 C   0  0  0  0  0  0  0  0  0  0  0  0
   18.4176    0.2062    0.0000 C   0  0  0  0  0  0  0  0  0  0  0  0
   10.5585    1.4437    0.0000 C   0  0  0  0  0  0  0  0  0  0  0  0
    9.8439    1.0312    0.0000 C   0  0  0  0  0  0  0  0  0  0  0  0
    9.8439    5.1562    0.0000 C   0  0  0  0  0  0  0  0  0  0  0  0
    6.2716   -2.6812    0.0000 C   0  0  0  0  0  0  0  0  0  0  0  0
   16.2742    2.2687    0.0000 C   0  0  0  0  0  0  0  0  0  0  0  0
   15.5597    3.5062    0.0000 C   0  0  0  0  0  0  0  0  0  0  0  0
    7.2342   -0.8615    0.0000 C   0  0  0  0  0  0  0  0  0  0  0  0
   14.1308    3.5062    0.0000 C   0  0  0  0  0  0  0  0  0  0  0  0
    7.8920   -4.2206    0.0000 C   0  0  0  0  0  0  0  0  0  0  0  0
    9.1296   -4.9351    0.0000 C   0  0  0  0  0  0  0  0  0  0  0  0
    5.5572   -1.4437    0.0000 C   0  0  0  0  0  0  0  0  0  0  0  0
   18.4176   -1.4437    0.0000 C   0  0  0  0  0  0  0  0  0  0  0  0
   19.1321   -0.2062    0.0000 C   0  0  0  0  0  0  0  0  0  0  0  0
    9.8439    0.2062    0.0000 C   0  0  0  0  0  0  0  0  0  0  0  0
   19.1321   -1.0312    0.0000 C   0  0  0  0  0  0  0  0  0  0  0  0
   16.9887    2.6812    0.0000 C   0  0  0  0  0  0  0  0  0  0  0  0
   16.2742    3.9187    0.0000 C   0  0  0  0  0  0  0  0  0  0  0  0
    7.4795   -4.9351    0.0000 C   0  0  0  0  0  0  0  0  0  0  0  0
    8.7170   -5.6496    0.0000 C   0  0  0  0  0  0  0  0  0  0  0  0
    4.8427   -1.0312    0.0000 C   0  0  0  0  0  0  0  0  0  0  0  0
    6.2716   -1.0312    0.0000 C   0  0  0  0  0  0  0  0  0  0  0  0
   16.9887    3.5062    0.0000 C   0  0  0  0  0  0  0  0  0  0  0  0
    7.8920   -5.6496    0.0000 C   0  0  0  0  0  0  0  0  0  0  0  0
    7.7006   -1.0312    0.0000 C   0  0  0  0  0  0  0  0  0  0  0  0
    8.8473    2.2190    0.0000 C   0  0  0  0  0  0  0  0  0  0  0  0
    8.4150   -1.4437    0.0000 C   0  0  0  0  0  0  0  0  0  0  0  0
    8.0349    2.3622    0.0000 C   0  0  0  0  0  0  0  0  0  0  0  0
    7.7006   -0.2062    0.0000 C   0  0  0  0  0  0  0  0  0  0  0  0
    6.9403    3.2807    0.0000 C   0  0  0  0  0  0  0  0  0  0  0  0
    6.6580    4.0560    0.0000 C   0  0  0  0  0  0  0  0  0  0  0  0
    7.1883    4.6879    0.0000 C   0  0  0  0  0  0  0  0  0  0  0  0
    0.0000    0.0000    0.0000 H   0  0  0  0  0  0  0  0  0  0  0  0
    0.0000    0.0000    0.0000 H   0  0  0  0  0  0  0  0  0  0  0  0
    0.0000    0.0000    0.0000 H   0  0  0  0  0  0  0  0  0  0  0  0
    0.0000    0.0000    0.0000 H   0  0  0  0  0  0  0  0  0  0  0  0
    0.0000    0.0000    0.0000 H   0  0  0  0  0  0  0  0  0  0  0  0
    0.0000    0.0000    0.0000 H   0  0  0  0  0  0  0  0  0  0  0  0
    0.0000    0.0000    0.0000 H   0  0  0  0  0  0  0  0  0  0  0  0
    0.0000    0.0000    0.0000 H   0  0  0  0  0  0  0  0  0  0  0  0
    0.0000    0.0000    0.0000 H   0  0  0  0  0  0  0  0  0  0  0  0
    0.0000    0.0000    0.0000 H   0  0  0  0  0  0  0  0  0  0  0  0
    0.0000    0.0000    0.0000 H   0  0  0  0  0  0  0  0  0  0  0  0
    0.0000    0.0000    0.0000 H   0  0  0  0  0  0  0  0  0  0  0  0
    0.0000    0.0000    0.0000 H   0  0  0  0  0  0  0  0  0  0  0  0
    0.0000    0.0000    0.0000 H   0  0  0  0  0  0  0  0  0  0  0  0
    0.0000    0.0000    0.0000 H   0  0  0  0  0  0  0  0  0  0  0  0
    0.0000    0.0000    0.0000 H   0  0  0  0  0  0  0  0  0  0  0  0
    0.0000    0.0000    0.0000 H   0  0  0  0  0  0  0  0  0  0  0  0
    0.0000    0.0000    0.0000 H   0  0  0  0  0  0  0  0  0  0  0  0
    0.0000    0.0000    0.0000 H   0  0  0  0  0  0  0  0  0  0  0  0
    0.0000    0.0000    0.0000 H   0  0  0  0  0  0  0  0  0  0  0  0
    0.0000    0.0000    0.0000 H   0  0  0  0  0  0  0  0  0  0  0  0
    0.0000    0.0000    0.0000 H   0  0  0  0  0  0  0  0  0  0  0  0
    0.0000    0.0000    0.0000 H   0  0  0  0  0  0  0  0  0  0  0  0
    0.0000    0.0000    0.0000 H   0  0  0  0  0  0  0  0  0  0  0  0
    0.0000    0.0000    0.0000 H   0  0  0  0  0  0  0  0  0  0  0  0
    0.0000    0.0000    0.0000 H   0  0  0  0  0  0  0  0  0  0  0  0
    0.0000    0.0000    0.0000 H   0  0  0  0  0  0  0  0  0  0  0  0
    0.0000    0.0000    0.0000 H   0  0  0  0  0  0  0  0  0  0  0  0
    0.0000    0.0000    0.0000 H   0  0  0  0  0  0  0  0  0  0  0  0
    0.0000    0.0000    0.0000 H   0  0  0  0  0  0  0  0  0  0  0  0
    0.0000    0.0000    0.0000 H   0  0  0  0  0  0  0  0  0  0  0  0
    0.0000    0.0000    0.0000 H   0  0  0  0  0  0  0  0  0  0  0  0
    0.0000    0.0000    0.0000 H   0  0  0  0  0  0  0  0  0  0  0  0
    0.0000    0.0000    0.0000 H   0  0  0  0  0  0  0  0  0  0  0  0
    0.0000    0.0000    0.0000 H   0  0  0  0  0  0  0  0  0  0  0  0
    0.0000    0.0000    0.0000 H   0  0  0  0  0  0  0  0  0  0  0  0
    0.0000    0.0000    0.0000 H   0  0  0  0  0  0  0  0  0  0  0  0
    0.0000    0.0000    0.0000 H   0  0  0  0  0  0  0  0  0  0  0  0
    0.0000    0.0000    0.0000 H   0  0  0  0  0  0  0  0  0  0  0  0
    0.0000    0.0000    0.0000 H   0  0  0  0  0  0  0  0  0  0  0  0
    0.0000    0.0000    0.0000 H   0  0  0  0  0  0  0  0  0  0  0  0
    0.0000    0.0000    0.0000 H   0  0  0  0  0  0  0  0  0  0  0  0
    0.0000    0.0000    0.0000 H   0  0  0  0  0  0  0  0  0  0  0  0
    0.0000    0.0000    0.0000 H   0  0  0  0  0  0  0  0  0  0  0  0
    0.0000    0.0000    0.0000 H   0  0  0  0  0  0  0  0  0  0  0  0
    0.0000    0.0000    0.0000 H   0  0  0  0  0  0  0  0  0  0  0  0
    0.0000    0.0000    0.0000 H   0  0  0  0  0  0  0  0  0  0  0  0
    0.0000    0.0000    0.0000 H   0  0  0  0  0  0  0  0  0  0  0  0
    0.0000    0.0000    0.0000 H   0  0  0  0  0  0  0  0  0  0  0  0
    0.0000    0.0000    0.0000 H   0  0  0  0  0  0  0  0  0  0  0  0
    0.0000    0.0000    0.0000 H   0  0  0  0  0  0  0  0  0  0  0  0
    0.0000    0.0000    0.0000 H   0  0  0  0  0  0  0  0  0  0  0  0
    0.0000    0.0000    0.0000 H   0  0  0  0  0  0  0  0  0  0  0  0
    0.0000    0.0000    0.0000 H   0  0  0  0  0  0  0  0  0  0  0  0
    0.0000    0.0000    0.0000 H   0  0  0  0  0  0  0  0  0  0  0  0
    0.0000    0.0000    0.0000 H   0  0  0  0  0  0  0  0  0  0  0  0
    0.0000    0.0000    0.0000 H   0  0  0  0  0  0  0  0  0  0  0  0
    0.0000    0.0000    0.0000 H   0  0  0  0  0  0  0  0  0  0  0  0
    0.0000    0.0000    0.0000 H   0  0  0  0  0  0  0  0  0  0  0  0
    0.0000    0.0000    0.0000 H   0  0  0  0  0  0  0  0  0  0  0  0
    0.0000    0.0000    0.0000 H   0  0  0  0  0  0  0  0  0  0  0  0
    0.0000    0.0000    0.0000 H   0  0  0  0  0  0  0  0  0  0  0  0
    0.0000    0.0000    0.0000 H   0  0  0  0  0  0  0  0  0  0  0  0
    0.0000    0.0000    0.0000 H   0  0  0  0  0  0  0  0  0  0  0  0
    0.0000    0.0000    0.0000 H   0  0  0  0  0  0  0  0  0  0  0  0
    0.0000    0.0000    0.0000 H   0  0  0  0  0  0  0  0  0  0  0  0
    0.0000    0.0000    0.0000 H   0  0  0  0  0  0  0  0  0  0  0  0
    0.0000    0.0000    0.0000 H   0  0  0  0  0  0  0  0  0  0  0  0
    0.0000    0.0000    0.0000 H   0  0  0  0  0  0  0  0  0  0  0  0
    0.0000    0.0000    0.0000 H   0  0  0  0  0  0  0  0  0  0  0  0
    0.0000    0.0000    0.0000 H   0  0  0  0  0  0  0  0  0  0  0  0
    0.0000    0.0000    0.0000 H   0  0  0  0  0  0  0  0  0  0  0  0
    0.0000    0.0000    0.0000 H   0  0  0  0  0  0  0  0  0  0  0  0
    0.0000    0.0000    0.0000 H   0  0  0  0  0  0  0  0  0  0  0  0
    0.0000    0.0000    0.0000 H   0  0  0  0  0  0  0  0  0  0  0  0
    0.0000    0.0000    0.0000 H   0  0  0  0  0  0  0  0  0  0  0  0
    0.0000    0.0000    0.0000 H   0  0  0  0  0  0  0  0  0  0  0  0
    0.0000    0.0000    0.0000 H   0  0  0  0  0  0  0  0  0  0  0  0
    0.0000    0.0000    0.0000 H   0  0  0  0  0  0  0  0  0  0  0  0
    0.0000    0.0000    0.0000 H   0  0  0  0  0  0  0  0  0  0  0  0
    0.0000    0.0000    0.0000 H   0  0  0  0  0  0  0  0  0  0  0  0
    0.0000    0.0000    0.0000 H   0  0  0  0  0  0  0  0  0  0  0  0
    0.0000    0.0000    0.0000 H   0  0  0  0  0  0  0  0  0  0  0  0
    0.0000    0.0000    0.0000 H   0  0  0  0  0  0  0  0  0  0  0  0
    0.0000    0.0000    0.0000 H   0  0  0  0  0  0  0  0  0  0  0  0
    0.0000    0.0000    0.0000 H   0  0  0  0  0  0  0  0  0  0  0  0
    0.0000    0.0000    0.0000 H   0  0  0  0  0  0  0  0  0  0  0  0
    0.0000    0.0000    0.0000 H   0  0  0  0  0  0  0  0  0  0  0  0
    0.0000    0.0000    0.0000 H   0  0  0  0  0  0  0  0  0  0  0  0
    0.0000    0.0000    0.0000 H   0  0  0  0  0  0  0  0  0  0  0  0
    0.0000    0.0000    0.0000 H   0  0  0  0  0  0  0  0  0  0  0  0
    0.0000    0.0000    0.0000 H   0  0  0  0  0  0  0  0  0  0  0  0
    0.0000    0.0000    0.0000 H   0  0  0  0  0  0  0  0  0  0  0  0
    0.0000    0.0000    0.0000 H   0  0  0  0  0  0  0  0  0  0  0  0
    0.0000    0.0000    0.0000 H   0  0  0  0  0  0  0  0  0  0  0  0
    0.0000    0.0000    0.0000 H   0  0  0  0  0  0  0  0  0  0  0  0
    0.0000    0.0000    0.0000 H   0  0  0  0  0  0  0  0  0  0  0  0
    0.0000    0.0000    0.0000 H   0  0  0  0  0  0  0  0  0  0  0  0
    0.0000    0.0000    0.0000 H   0  0  0  0  0  0  0  0  0  0  0  0
    0.0000    0.0000    0.0000 H   0  0  0  0  0  0  0  0  0  0  0  0
    0.0000    0.0000    0.0000 H   0  0  0  0  0  0  0  0  0  0  0  0
    0.0000    0.0000    0.0000 H   0  0  0  0  0  0  0  0  0  0  0  0
    0.0000    0.0000    0.0000 H   0  0  0  0  0  0  0  0  0  0  0  0
    0.0000    0.0000    0.0000 H   0  0  0  0  0  0  0  0  0  0  0  0
  1  2  1  0
  1 98  1  0
  2110  1  0
  3 45  2  0
  4 48  2  0
  5 53  1  0
  6 51  2  0
  7 57  2  0
  8 62  2  0
  9 71  2  0
 10 72  2  0
 11 73  2  0
 12 81  1  0
 13 85  2  0
 14 88  2  0
 15 92  2  0
 16104  1  0
 17105  2  0
 18109  2  0
 19112  1  0
 20112  2  0
 21113  2  0
 22 40  1  0
 22 45  1  0
 23 41  1  0
 23 51  1  0
 24 47  1  0
 24 48  1  0
 25 49  1  0
 25 62  1  0
 26 56  1  0
 26 58  1  0
 27 57  1  0
 27 59  1  0
 28 55  1  0
 28 72  1  0
 29 65  1  0
 29 73  1  0
 30 61  1  0
 30 85  1  0
 31 71  1  0
 31 75  1  0
 32 60  1  0
 33 88  1  0
 33 95  1  0
 34 86  1  0
 34109  1  0
 35 87  1  0
 36 92  1  0
 37105  1  0
 37108  1  0
 38111  1  0
 38113  1  0
 39114  1  0
 40 42  1  0
 40 48  1  0
 41 43  1  0
 41 45  1  0
 42 44  1  0
 43 46  1  0
 44 50  1  0
 46 52  1  0
 46 56  2  0
 47 53  1  0
 47 57  1  0
 49 51  1  0
 49 54  1  0
 50 60  1  0
 52 58  2  0
 52 68  1  0
 53 70  1  0
 54 67  1  0
 55 62  1  0
 55 64  1  0
 58 74  1  0
 59 66  1  0
 59 71  1  0
 61 63  1  0
 61 73  1  0
 63 69  1  0
 64 78  1  0
 65 72  1  0
 65 77  1  0
 66 80  1  0
 67 83  2  0
 67 84  1  0
 68 79  2  0
 69 76  1  0
 74 82  2  0
 75 81  1  0
 75 88  1  0
 76 87  1  0
 77 92  1  0
 78 89  2  0
 78 90  1  0
 79 82  1  0
 80 93  2  0
 80 94  1  0
 81 91  1  0
 83 96  1  0
 84 97  2  0
 85 86  1  0
 86 98  1  0
 89100  1  0
 90101  2  0
 93102  1  0
 94103  2  0
 95104  1  0
 95105  1  0
 96 99  2  0
 97 99  1  0
100106  2  0
101106  1  0
102107  2  0
103107  1  0
108110  1  0
108112  1  0
109111  1  0
113114  1  0
114115  1  0
  5116  1  0
 12117  1  0
 16118  1  0
 19119  1  0
 22120  1  0
 23121  1  0
 24122  1  0
 25123  1  0
 26124  1  0
 27125  1  0
 28126  1  0
 29127  1  0
 30128  1  0
 31129  1  0
 32130  1  0
 32131  1  0
 33132  1  0
 34133  1  0
 35134  1  0
 35135  1  0
 36136  1  0
 36137  1  0
 37138  1  0
 38139  1  0
 39140  1  0
 39141  1  0
 40142  1  0
 41143  1  0
 42144  1  0
 42145  1  0
 43146  1  0
 43147  1  0
 44148  1  0
 44149  1  0
 47150  1  0
 49151  1  0
 50152  1  0
 50153  1  0
 53154  1  0
 54155  1  0
 54156  1  0
 55157  1  0
 56158  1  0
 59159  1  0
 60160  1  0
 60161  1  0
 61162  1  0
 63163  1  0
 63164  1  0
 64165  1  0
 64166  1  0
 65167  1  0
 66168  1  0
 66169  1  0
 68170  1  0
 69171  1  0
 69172  1  0
 70173  1  0
 70174  1  0
 70175  1  0
 74176  1  0
 75177  1  0
 76178  1  0
 76179  1  0
 77180  1  0
 77181  1  0
 79182  1  0
 81183  1  0
 82184  1  0
 83185  1  0
 84186  1  0
 86187  1  0
 87188  1  0
 87189  1  0
 89190  1  0
 90191  1  0
 91192  1  0
 91193  1  0
 91194  1  0
 93195  1  0
 94196  1  0
 95197  1  0
 96198  1  0
 97199  1  0
 98200  1  0
 98201  1  0
 99202  1  0
100203  1  0
101204  1  0
102205  1  0
103206  1  0
104207  1  0
104208  1  0
106209  1  0
107210  1  0
108211  1  0
110212  1  0
110213  1  0
111214  1  0
111215  1  0
114216  1  0
115217  1  0
115218  1  0
115219  1  0
M  END
>  <ALOGPS_LOGP>  (1) 
-1.84

>  <ALOGPS_LOGS>  (1) 
-4.90

>  <ALOGPS_SOLUBILITY>  (1) 
2.05e-02 g/l

>  <DATABASE_ID>  (1) 
DB09099

>  <DATABASE_NAME>  (1) 
drugbank

>  <DRUGBANK_ID>  (1) 
DB09099

>  <DRUG_GROUPS>  (1) 
approved; investigational

>  <EXACT_MASS>  (1) 
1636.716655549

>  <FORMULA>  (1) 
C76H104N18O19S2

>  <GENERIC_NAME>  (1) 
Somatostatin

>  <INCHI_IDENTIFIER>  (1) 
InChI=1S/C76H104N18O19S2/c1-41(79)64(100)82-37-61(99)83-58-39-114-115-40-59(76(112)113)92-72(108)57(38-95)91-75(111)63(43(3)97)94-71(107)54(33-46-23-11-6-12-24-46)90-74(110)62(42(2)96)93-66(102)51(28-16-18-30-78)84-69(105)55(34-47-36-81-49-26-14-13-25-48(47)49)88-68(104)53(32-45-21-9-5-10-22-45)86-67(103)52(31-44-19-7-4-8-20-44)87-70(106)56(35-60(80)98)89-65(101)50(85-73(58)109)27-15-17-29-77/h4-14,19-26,36,41-43,50-59,62-63,81,95-97H,15-18,27-35,37-40,77-79H2,1-3H3,(H2,80,98)(H,82,100)(H,83,99)(H,84,105)(H,85,109)(H,86,103)(H,87,106)(H,88,104)(H,89,101)(H,90,110)(H,91,111)(H,92,108)(H,93,102)(H,94,107)(H,112,113)

>  <INCHI_KEY>  (1) 
NHXLMOGPVYXJNR-UHFFFAOYSA-N

>  <JCHEM_ACCEPTOR_COUNT>  (1) 
22

>  <JCHEM_ATOM_COUNT>  (1) 
219

>  <JCHEM_AVERAGE_POLARIZABILITY>  (1) 
165.90743108618545

>  <JCHEM_BIOAVAILABILITY>  (1) 
0

>  <JCHEM_DONOR_COUNT>  (1) 
22

>  <JCHEM_FORMAL_CHARGE>  (1) 
0

>  <JCHEM_GHOSE_FILTER>  (1) 
0

>  <JCHEM_IUPAC>  (1) 
19,34-bis(4-aminobutyl)-37-[2-(2-aminopropanamido)acetamido]-13,25,28-tribenzyl-31-(carbamoylmethyl)-10,16-bis(1-hydroxyethyl)-7-(hydroxymethyl)-22-[(1H-indol-3-yl)methyl]-6,9,12,15,18,21,24,27,30,33,36-undecaoxo-1,2-dithia-5,8,11,14,17,20,23,26,29,32,35-undecaazacyclooctatriacontane-4-carboxylic acid

>  <JCHEM_LOGP>  (1) 
-8.234491845035745

>  <JCHEM_MDDR_LIKE_RULE>  (1) 
1

>  <JCHEM_NUMBER_OF_RINGS>  (1) 
6

>  <JCHEM_PHYSIOLOGICAL_CHARGE>  (1) 
2

>  <JCHEM_PKA>  (1) 
11.410658761589486

>  <JCHEM_PKA_STRONGEST_ACIDIC>  (1) 
2.8840422878822505

>  <JCHEM_PKA_STRONGEST_BASIC>  (1) 
10.465604797102054

>  <JCHEM_POLAR_SURFACE_AREA>  (1) 
613.2299999999996

>  <JCHEM_REFRACTIVITY>  (1) 
420.26000000000016

>  <JCHEM_ROTATABLE_BOND_COUNT>  (1) 
26

>  <JCHEM_RULE_OF_FIVE>  (1) 
0

>  <JCHEM_TRADITIONAL_IUPAC>  (1) 
19,34-bis(4-aminobutyl)-37-[2-(2-aminopropanamido)acetamido]-13,25,28-tribenzyl-31-(carbamoylmethyl)-10,16-bis(1-hydroxyethyl)-7-(hydroxymethyl)-22-(1H-indol-3-ylmethyl)-6,9,12,15,18,21,24,27,30,33,36-undecaoxo-1,2-dithia-5,8,11,14,17,20,23,26,29,32,35-undecaazacyclooctatriacontane-4-carboxylic acid

>  <JCHEM_VEBER_RULE>  (1) 
0

>  <MOLECULAR_WEIGHT>  (1) 
1637.9

>  <PRODUCTS>  (1) 
Stilamin - Pws IV  3mg/amp; Stilamin - Pws Liq IV

>  <SALTS>  (1) 
Somatostatin acetate

>  <SMILES>  (1) 
CC(O)C1NC(=O)C(CC2=CC=CC=C2)NC(=O)C(NC(=O)C(CCCCN)NC(=O)C(CC2=CNC3=CC=CC=C23)NC(=O)C(CC2=CC=CC=C2)NC(=O)C(CC2=CC=CC=C2)NC(=O)C(CC(N)=O)NC(=O)C(CCCCN)NC(=O)C(CSSCC(NC(=O)C(CO)NC1=O)C(O)=O)NC(=O)CNC(=O)C(C)N)C(C)O

$$$$
