
     RDKit          2D

 35 36  0  0  0  0  0  0  0  0999 V2000
   -1.8551    0.0000    0.0000 C   0  0  0  0  0  0  0  0  0  0  0  0
   -1.8551   -0.8250    0.0000 C   0  0  0  0  0  0  0  0  0  0  0  0
   -1.1405   -1.2376    0.0000 C   0  0  0  0  0  0  0  0  0  0  0  0
   -0.4260   -0.8250    0.0000 C   0  0  0  0  0  0  0  0  0  0  0  0
   -0.4260    0.0000    0.0000 C   0  0  0  0  0  0  0  0  0  0  0  0
   -1.1405    0.4126    0.0000 C   0  0  0  0  0  0  0  0  0  0  0  0
   -2.6398    0.2549    0.0000 O   0  0  0  0  0  0  0  0  0  0  0  0
   -3.1248   -0.4124    0.0000 C   0  0  0  0  0  0  0  0  0  0  0  0
   -2.6398   -1.0799    0.0000 O   0  0  0  0  0  0  0  0  0  0  0  0
    0.2995    0.4191    0.0000 C   0  0  0  0  0  0  0  0  0  0  0  0
    1.0098    0.0090    0.0000 C   0  0  0  0  0  0  0  0  0  0  0  0
    1.7066    0.4114    0.0000 C   0  0  0  0  0  0  0  0  0  0  0  0
    2.4103    0.0052    0.0000 C   0  0  0  0  0  0  0  0  0  0  0  0
    1.7066    1.2376    0.0000 O   0  0  0  0  0  0  0  0  0  0  0  0
    3.1248   -0.4072    0.0000 C   0  0  0  0  0  0  0  0  0  0  0  0
    1.9916   -0.7202    0.0000 C   0  0  0  0  0  0  0  0  0  0  0  0
    2.8163    0.7089    0.0000 C   0  0  0  0  0  0  0  0  0  0  0  0
    0.0000    0.0000    0.0000 H   0  0  0  0  0  0  0  0  0  0  0  0
    0.0000    0.0000    0.0000 H   0  0  0  0  0  0  0  0  0  0  0  0
    0.0000    0.0000    0.0000 H   0  0  0  0  0  0  0  0  0  0  0  0
    0.0000    0.0000    0.0000 H   0  0  0  0  0  0  0  0  0  0  0  0
    0.0000    0.0000    0.0000 H   0  0  0  0  0  0  0  0  0  0  0  0
    0.0000    0.0000    0.0000 H   0  0  0  0  0  0  0  0  0  0  0  0
    0.0000    0.0000    0.0000 H   0  0  0  0  0  0  0  0  0  0  0  0
    0.0000    0.0000    0.0000 H   0  0  0  0  0  0  0  0  0  0  0  0
    0.0000    0.0000    0.0000 H   0  0  0  0  0  0  0  0  0  0  0  0
    0.0000    0.0000    0.0000 H   0  0  0  0  0  0  0  0  0  0  0  0
    0.0000    0.0000    0.0000 H   0  0  0  0  0  0  0  0  0  0  0  0
    0.0000    0.0000    0.0000 H   0  0  0  0  0  0  0  0  0  0  0  0
    0.0000    0.0000    0.0000 H   0  0  0  0  0  0  0  0  0  0  0  0
    0.0000    0.0000    0.0000 H   0  0  0  0  0  0  0  0  0  0  0  0
    0.0000    0.0000    0.0000 H   0  0  0  0  0  0  0  0  0  0  0  0
    0.0000    0.0000    0.0000 H   0  0  0  0  0  0  0  0  0  0  0  0
    0.0000    0.0000    0.0000 H   0  0  0  0  0  0  0  0  0  0  0  0
    0.0000    0.0000    0.0000 H   0  0  0  0  0  0  0  0  0  0  0  0
  1  2  1  0
  2  3  2  0
  3  4  1  0
  4  5  2  0
  5  6  1  0
  1  6  2  0
  1  7  1  0
  7  8  1  0
  8  9  1  0
  2  9  1  0
  5 10  1  0
 10 11  2  0
 11 12  1  0
 12 13  1  0
 12 14  1  0
 13 15  1  0
 13 16  1  0
 13 17  1  0
  3 18  1  0
  4 19  1  0
  6 20  1  0
  8 21  1  0
  8 22  1  0
 10 23  1  0
 11 24  1  0
 12 25  1  0
 14 26  1  0
 15 27  1  0
 15 28  1  0
 15 29  1  0
 16 30  1  0
 16 31  1  0
 16 32  1  0
 17 33  1  0
 17 34  1  0
 17 35  1  0
M  END
>  <ALOGPS_LOGP>  (1) 
3.01

>  <ALOGPS_LOGS>  (1) 
-2.76

>  <ALOGPS_SOLUBILITY>  (1) 
4.05e-01 g/l

>  <DATABASE_ID>  (1) 
DB09118

>  <DATABASE_NAME>  (1) 
drugbank

>  <DRUGBANK_ID>  (1) 
DB09118

>  <DRUG_GROUPS>  (1) 
approved

>  <EXACT_MASS>  (1) 
234.12559444

>  <FORMULA>  (1) 
C14H18O3

>  <GENERIC_NAME>  (1) 
Stiripentol

>  <INCHI_IDENTIFIER>  (1) 
InChI=1S/C14H18O3/c1-14(2,3)13(15)7-5-10-4-6-11-12(8-10)17-9-16-11/h4-8,13,15H,9H2,1-3H3/b7-5+

>  <INCHI_KEY>  (1) 
IBLNKMRFIPWSOY-FNORWQNLSA-N

>  <JCHEM_ACCEPTOR_COUNT>  (1) 
3

>  <JCHEM_ATOM_COUNT>  (1) 
35

>  <JCHEM_AVERAGE_POLARIZABILITY>  (1) 
26.210923700243516

>  <JCHEM_BIOAVAILABILITY>  (1) 
1

>  <JCHEM_DONOR_COUNT>  (1) 
1

>  <JCHEM_FORMAL_CHARGE>  (1) 
0

>  <JCHEM_GHOSE_FILTER>  (1) 
1

>  <JCHEM_IUPAC>  (1) 
(1E)-1-(2H-1,3-benzodioxol-5-yl)-4,4-dimethylpent-1-en-3-ol

>  <JCHEM_LOGP>  (1) 
3.121116285666667

>  <JCHEM_MDDR_LIKE_RULE>  (1) 
0

>  <JCHEM_NUMBER_OF_RINGS>  (1) 
2

>  <JCHEM_PHYSIOLOGICAL_CHARGE>  (1) 
0

>  <JCHEM_PKA_STRONGEST_ACIDIC>  (1) 
14.337274467493085

>  <JCHEM_PKA_STRONGEST_BASIC>  (1) 
-3.088676147918525

>  <JCHEM_POLAR_SURFACE_AREA>  (1) 
38.69

>  <JCHEM_REFRACTIVITY>  (1) 
66.7719

>  <JCHEM_ROTATABLE_BOND_COUNT>  (1) 
3

>  <JCHEM_RULE_OF_FIVE>  (1) 
1

>  <JCHEM_TRADITIONAL_IUPAC>  (1) 
stiripentol

>  <JCHEM_VEBER_RULE>  (1) 
1

>  <MOLECULAR_WEIGHT>  (1) 
234.295

>  <PRODUCTS>  (1) 
Diacomit

>  <SMILES>  (1) 
CC(C)(C)C(O)\C=C\C1=CC2=C(OCO2)C=C1

>  <SYNONYMS>  (1) 
1-(1,3-Benzodioxol-5-yl)-4,4-dimethyl-1-penten-3-ol; 4,4-Dimethyl-1-((3,4-methylenedioxy)phenyl)-1-penten-3-ol; BCX 2600; BRN 1313047; Estiripentol; Stiripentolum

$$$$
