Dipalmitoylphosphatidylcholine.mol
     RDKit          2D

130129  0  0  0  0  0  0  0  0999 V2000
   -3.4618   -6.1875    0.0000 C   0  0  0  0  0  0  0  0  0  0  0  0
   -3.0493   -5.4730    0.0000 C   0  0  0  0  0  0  0  0  0  0  0  0
   -3.4618   -4.7586    0.0000 O   0  0  0  0  0  0  0  0  0  0  0  0
   -4.2868   -4.7586    0.0000 P   0  0  0  0  0  0  0  0  0  0  0  0
   -4.2868   -3.9336    0.0000 O   0  0  0  0  0  0  0  0  0  0  0  0
   -5.0013   -3.5211    0.0000 C   0  0  0  0  0  0  0  0  0  0  0  0
   -5.0013   -2.6961    0.0000 C   0  0  0  0  0  0  0  0  0  0  0  0
   -4.2868   -2.2836    0.0000 C   0  0  0  0  0  0  0  0  0  0  0  0
   -4.2868   -1.4586    0.0000 O   0  0  0  0  0  0  0  0  0  0  0  0
   -3.5724   -1.0461    0.0000 C   0  0  0  0  0  0  0  0  0  0  0  0
   -3.5724   -0.2211    0.0000 C   0  0  0  0  0  0  0  0  0  0  0  0
   -2.8579    0.1914    0.0000 C   0  0  0  0  0  0  0  0  0  0  0  0
   -2.1434   -0.2211    0.0000 C   0  0  0  0  0  0  0  0  0  0  0  0
   -1.4289    0.1914    0.0000 C   0  0  0  0  0  0  0  0  0  0  0  0
   -0.7145   -0.2211    0.0000 C   0  0  0  0  0  0  0  0  0  0  0  0
    0.0000    0.1914    0.0000 C   0  0  0  0  0  0  0  0  0  0  0  0
    0.7145   -0.2211    0.0000 C   0  0  0  0  0  0  0  0  0  0  0  0
    1.4289    0.1914    0.0000 C   0  0  0  0  0  0  0  0  0  0  0  0
    2.1434   -0.2211    0.0000 C   0  0  0  0  0  0  0  0  0  0  0  0
    2.8579    0.1914    0.0000 C   0  0  0  0  0  0  0  0  0  0  0  0
    3.5724   -0.2211    0.0000 C   0  0  0  0  0  0  0  0  0  0  0  0
    4.2868    0.1914    0.0000 C   0  0  0  0  0  0  0  0  0  0  0  0
    5.0013   -0.2211    0.0000 C   0  0  0  0  0  0  0  0  0  0  0  0
    5.7158    0.1914    0.0000 C   0  0  0  0  0  0  0  0  0  0  0  0
    6.4302   -0.2211    0.0000 C   0  0  0  0  0  0  0  0  0  0  0  0
   -3.0493   -6.9020    0.0000 N   0  0  0  0  0  0  0  0  0  0  0  0
   -4.2868   -5.5836    0.0000 O   0  0  0  0  0  0  0  0  0  0  0  0
   -5.7158   -2.2836    0.0000 O   0  0  0  0  0  0  0  0  0  0  0  0
   -5.7158   -1.4586    0.0000 C   0  0  0  0  0  0  0  0  0  0  0  0
   -6.4302   -1.0461    0.0000 C   0  0  0  0  0  0  0  0  0  0  0  0
   -6.4302   -0.2211    0.0000 C   0  0  0  0  0  0  0  0  0  0  0  0
   -5.7158    0.1914    0.0000 C   0  0  0  0  0  0  0  0  0  0  0  0
   -5.7158    1.0164    0.0000 C   0  0  0  0  0  0  0  0  0  0  0  0
   -5.0013    1.4289    0.0000 C   0  0  0  0  0  0  0  0  0  0  0  0
   -5.0013    2.2539    0.0000 C   0  0  0  0  0  0  0  0  0  0  0  0
   -4.2868    2.6664    0.0000 C   0  0  0  0  0  0  0  0  0  0  0  0
   -4.2868    3.4914    0.0000 C   0  0  0  0  0  0  0  0  0  0  0  0
   -3.5724    3.9039    0.0000 C   0  0  0  0  0  0  0  0  0  0  0  0
   -3.5724    4.7289    0.0000 C   0  0  0  0  0  0  0  0  0  0  0  0
   -2.8579    5.1414    0.0000 C   0  0  0  0  0  0  0  0  0  0  0  0
   -2.8579    5.9664    0.0000 C   0  0  0  0  0  0  0  0  0  0  0  0
   -2.1434    6.3789    0.0000 C   0  0  0  0  0  0  0  0  0  0  0  0
   -2.1434    7.2039    0.0000 C   0  0  0  0  0  0  0  0  0  0  0  0
   -1.4289    7.6164    0.0000 C   0  0  0  0  0  0  0  0  0  0  0  0
   -5.0013   -1.0461    0.0000 O   0  0  0  0  0  0  0  0  0  0  0  0
   -2.8579   -1.4586    0.0000 O   0  0  0  0  0  0  0  0  0  0  0  0
   -3.7638   -7.3145    0.0000 C   0  0  0  0  0  0  0  0  0  0  0  0
   -2.3349   -6.4895    0.0000 C   0  0  0  0  0  0  0  0  0  0  0  0
   -2.6368   -7.6164    0.0000 C   0  0  0  0  0  0  0  0  0  0  0  0
   -5.1118   -4.7586    0.0000 O   0  0  0  0  0  0  0  0  0  0  0  0
    0.0000    0.0000    0.0000 H   0  0  0  0  0  0  0  0  0  0  0  0
    0.0000    0.0000    0.0000 H   0  0  0  0  0  0  0  0  0  0  0  0
    0.0000    0.0000    0.0000 H   0  0  0  0  0  0  0  0  0  0  0  0
    0.0000    0.0000    0.0000 H   0  0  0  0  0  0  0  0  0  0  0  0
    0.0000    0.0000    0.0000 H   0  0  0  0  0  0  0  0  0  0  0  0
    0.0000    0.0000    0.0000 H   0  0  0  0  0  0  0  0  0  0  0  0
    0.0000    0.0000    0.0000 H   0  0  0  0  0  0  0  0  0  0  0  0
    0.0000    0.0000    0.0000 H   0  0  0  0  0  0  0  0  0  0  0  0
    0.0000    0.0000    0.0000 H   0  0  0  0  0  0  0  0  0  0  0  0
    0.0000    0.0000    0.0000 H   0  0  0  0  0  0  0  0  0  0  0  0
    0.0000    0.0000    0.0000 H   0  0  0  0  0  0  0  0  0  0  0  0
    0.0000    0.0000    0.0000 H   0  0  0  0  0  0  0  0  0  0  0  0
    0.0000    0.0000    0.0000 H   0  0  0  0  0  0  0  0  0  0  0  0
    0.0000    0.0000    0.0000 H   0  0  0  0  0  0  0  0  0  0  0  0
    0.0000    0.0000    0.0000 H   0  0  0  0  0  0  0  0  0  0  0  0
    0.0000    0.0000    0.0000 H   0  0  0  0  0  0  0  0  0  0  0  0
    0.0000    0.0000    0.0000 H   0  0  0  0  0  0  0  0  0  0  0  0
    0.0000    0.0000    0.0000 H   0  0  0  0  0  0  0  0  0  0  0  0
    0.0000    0.0000    0.0000 H   0  0  0  0  0  0  0  0  0  0  0  0
    0.0000    0.0000    0.0000 H   0  0  0  0  0  0  0  0  0  0  0  0
    0.0000    0.0000    0.0000 H   0  0  0  0  0  0  0  0  0  0  0  0
    0.0000    0.0000    0.0000 H   0  0  0  0  0  0  0  0  0  0  0  0
    0.0000    0.0000    0.0000 H   0  0  0  0  0  0  0  0  0  0  0  0
    0.0000    0.0000    0.0000 H   0  0  0  0  0  0  0  0  0  0  0  0
    0.0000    0.0000    0.0000 H   0  0  0  0  0  0  0  0  0  0  0  0
    0.0000    0.0000    0.0000 H   0  0  0  0  0  0  0  0  0  0  0  0
    0.0000    0.0000    0.0000 H   0  0  0  0  0  0  0  0  0  0  0  0
    0.0000    0.0000    0.0000 H   0  0  0  0  0  0  0  0  0  0  0  0
    0.0000    0.0000    0.0000 H   0  0  0  0  0  0  0  0  0  0  0  0
    0.0000    0.0000    0.0000 H   0  0  0  0  0  0  0  0  0  0  0  0
    0.0000    0.0000    0.0000 H   0  0  0  0  0  0  0  0  0  0  0  0
    0.0000    0.0000    0.0000 H   0  0  0  0  0  0  0  0  0  0  0  0
    0.0000    0.0000    0.0000 H   0  0  0  0  0  0  0  0  0  0  0  0
    0.0000    0.0000    0.0000 H   0  0  0  0  0  0  0  0  0  0  0  0
    0.0000    0.0000    0.0000 H   0  0  0  0  0  0  0  0  0  0  0  0
    0.0000    0.0000    0.0000 H   0  0  0  0  0  0  0  0  0  0  0  0
    0.0000    0.0000    0.0000 H   0  0  0  0  0  0  0  0  0  0  0  0
    0.0000    0.0000    0.0000 H   0  0  0  0  0  0  0  0  0  0  0  0
    0.0000    0.0000    0.0000 H   0  0  0  0  0  0  0  0  0  0  0  0
    0.0000    0.0000    0.0000 H   0  0  0  0  0  0  0  0  0  0  0  0
    0.0000    0.0000    0.0000 H   0  0  0  0  0  0  0  0  0  0  0  0
    0.0000    0.0000    0.0000 H   0  0  0  0  0  0  0  0  0  0  0  0
    0.0000    0.0000    0.0000 H   0  0  0  0  0  0  0  0  0  0  0  0
    0.0000    0.0000    0.0000 H   0  0  0  0  0  0  0  0  0  0  0  0
    0.0000    0.0000    0.0000 H   0  0  0  0  0  0  0  0  0  0  0  0
    0.0000    0.0000    0.0000 H   0  0  0  0  0  0  0  0  0  0  0  0
    0.0000    0.0000    0.0000 H   0  0  0  0  0  0  0  0  0  0  0  0
    0.0000    0.0000    0.0000 H   0  0  0  0  0  0  0  0  0  0  0  0
    0.0000    0.0000    0.0000 H   0  0  0  0  0  0  0  0  0  0  0  0
    0.0000    0.0000    0.0000 H   0  0  0  0  0  0  0  0  0  0  0  0
    0.0000    0.0000    0.0000 H   0  0  0  0  0  0  0  0  0  0  0  0
    0.0000    0.0000    0.0000 H   0  0  0  0  0  0  0  0  0  0  0  0
    0.0000    0.0000    0.0000 H   0  0  0  0  0  0  0  0  0  0  0  0
    0.0000    0.0000    0.0000 H   0  0  0  0  0  0  0  0  0  0  0  0
    0.0000    0.0000    0.0000 H   0  0  0  0  0  0  0  0  0  0  0  0
    0.0000    0.0000    0.0000 H   0  0  0  0  0  0  0  0  0  0  0  0
    0.0000    0.0000    0.0000 H   0  0  0  0  0  0  0  0  0  0  0  0
    0.0000    0.0000    0.0000 H   0  0  0  0  0  0  0  0  0  0  0  0
    0.0000    0.0000    0.0000 H   0  0  0  0  0  0  0  0  0  0  0  0
    0.0000    0.0000    0.0000 H   0  0  0  0  0  0  0  0  0  0  0  0
    0.0000    0.0000    0.0000 H   0  0  0  0  0  0  0  0  0  0  0  0
    0.0000    0.0000    0.0000 H   0  0  0  0  0  0  0  0  0  0  0  0
    0.0000    0.0000    0.0000 H   0  0  0  0  0  0  0  0  0  0  0  0
    0.0000    0.0000    0.0000 H   0  0  0  0  0  0  0  0  0  0  0  0
    0.0000    0.0000    0.0000 H   0  0  0  0  0  0  0  0  0  0  0  0
    0.0000    0.0000    0.0000 H   0  0  0  0  0  0  0  0  0  0  0  0
    0.0000    0.0000    0.0000 H   0  0  0  0  0  0  0  0  0  0  0  0
    0.0000    0.0000    0.0000 H   0  0  0  0  0  0  0  0  0  0  0  0
    0.0000    0.0000    0.0000 H   0  0  0  0  0  0  0  0  0  0  0  0
    0.0000    0.0000    0.0000 H   0  0  0  0  0  0  0  0  0  0  0  0
    0.0000    0.0000    0.0000 H   0  0  0  0  0  0  0  0  0  0  0  0
    0.0000    0.0000    0.0000 H   0  0  0  0  0  0  0  0  0  0  0  0
    0.0000    0.0000    0.0000 H   0  0  0  0  0  0  0  0  0  0  0  0
    0.0000    0.0000    0.0000 H   0  0  0  0  0  0  0  0  0  0  0  0
    0.0000    0.0000    0.0000 H   0  0  0  0  0  0  0  0  0  0  0  0
    0.0000    0.0000    0.0000 H   0  0  0  0  0  0  0  0  0  0  0  0
    0.0000    0.0000    0.0000 H   0  0  0  0  0  0  0  0  0  0  0  0
    0.0000    0.0000    0.0000 H   0  0  0  0  0  0  0  0  0  0  0  0
    0.0000    0.0000    0.0000 H   0  0  0  0  0  0  0  0  0  0  0  0
    0.0000    0.0000    0.0000 H   0  0  0  0  0  0  0  0  0  0  0  0
  1  2  1  0
  2  3  1  0
  3  4  1  0
  4  5  1  0
  5  6  1  0
  7  6  1  6
  7  8  1  0
  8  9  1  0
  9 10  1  0
 10 11  1  0
 11 12  1  0
 12 13  1  0
 13 14  1  0
 14 15  1  0
 15 16  1  0
 16 17  1  0
 17 18  1  0
 18 19  1  0
 19 20  1  0
 20 21  1  0
 21 22  1  0
 22 23  1  0
 23 24  1  0
 24 25  1  0
  1 26  1  0
  4 27  2  0
 29 30  1  0
 30 31  1  0
 31 32  1  0
 32 33  1  0
 33 34  1  0
 34 35  1  0
 35 36  1  0
 36 37  1  0
 37 38  1  0
 38 39  1  0
 39 40  1  0
 40 41  1  0
 41 42  1  0
 42 43  1  0
 43 44  1  0
 29 45  2  0
 28 29  1  0
  7 28  1  0
 10 46  2  0
 26 47  1  0
 26 48  1  0
 26 49  1  0
  4 50  1  0
  1 51  1  0
  1 52  1  0
  2 53  1  0
  2 54  1  0
  6 55  1  0
  6 56  1  0
  7 57  1  0
  8 58  1  0
  8 59  1  0
 11 60  1  0
 11 61  1  0
 12 62  1  0
 12 63  1  0
 13 64  1  0
 13 65  1  0
 14 66  1  0
 14 67  1  0
 15 68  1  0
 15 69  1  0
 16 70  1  0
 16 71  1  0
 17 72  1  0
 17 73  1  0
 18 74  1  0
 18 75  1  0
 19 76  1  0
 19 77  1  0
 20 78  1  0
 20 79  1  0
 21 80  1  0
 21 81  1  0
 22 82  1  0
 22 83  1  0
 23 84  1  0
 23 85  1  0
 24 86  1  0
 24 87  1  0
 25 88  1  0
 25 89  1  0
 25 90  1  0
 30 91  1  0
 30 92  1  0
 31 93  1  0
 31 94  1  0
 32 95  1  0
 32 96  1  0
 33 97  1  0
 33 98  1  0
 34 99  1  0
 34100  1  0
 35101  1  0
 35102  1  0
 36103  1  0
 36104  1  0
 37105  1  0
 37106  1  0
 38107  1  0
 38108  1  0
 39109  1  0
 39110  1  0
 40111  1  0
 40112  1  0
 41113  1  0
 41114  1  0
 42115  1  0
 42116  1  0
 43117  1  0
 43118  1  0
 44119  1  0
 44120  1  0
 44121  1  0
 47122  1  0
 47123  1  0
 47124  1  0
 48125  1  0
 48126  1  0
 48127  1  0
 49128  1  0
 49129  1  0
 49130  1  0
M  CHG  2  26   1  50  -1
M  END
>  <ALOGPS_LOGP>  (1) 
5.29

>  <ALOGPS_LOGS>  (1) 
-7.52

>  <ALOGPS_SOLUBILITY>  (1) 
2.40e-05 g/l

>  <DATABASE_ID>  (1) 
DB09114

>  <DATABASE_NAME>  (1) 
drugbank

>  <DRUGBANK_ID>  (1) 
DB09114

>  <DRUG_GROUPS>  (1) 
approved; investigational

>  <EXACT_MASS>  (1) 
733.562155053

>  <FORMULA>  (1) 
C40H80NO8P

>  <GENERIC_NAME>  (1) 
Colfosceril palmitate

>  <INCHI_IDENTIFIER>  (1) 
InChI=1S/C40H80NO8P/c1-6-8-10-12-14-16-18-20-22-24-26-28-30-32-39(42)46-36-38(37-48-50(44,45)47-35-34-41(3,4)5)49-40(43)33-31-29-27-25-23-21-19-17-15-13-11-9-7-2/h38H,6-37H2,1-5H3/t38-/m1/s1

>  <INCHI_KEY>  (1) 
KILNVBDSWZSGLL-KXQOOQHDSA-N

>  <JCHEM_ACCEPTOR_COUNT>  (1) 
4

>  <JCHEM_AVERAGE_POLARIZABILITY>  (1) 
91.99758602380544

>  <JCHEM_BIOAVAILABILITY>  (1) 
0

>  <JCHEM_DONOR_COUNT>  (1) 
0

>  <JCHEM_FORMAL_CHARGE>  (1) 
0

>  <JCHEM_GHOSE_FILTER>  (1) 
0

>  <JCHEM_IUPAC>  (1) 
(2-{[(2R)-2,3-bis(hexadecanoyloxy)propyl phosphonato]oxy}ethyl)trimethylazanium

>  <JCHEM_LOGP>  (1) 
8.11379637919492

>  <JCHEM_MDDR_LIKE_RULE>  (1) 
0

>  <JCHEM_NUMBER_OF_RINGS>  (1) 
0

>  <JCHEM_PHYSIOLOGICAL_CHARGE>  (1) 
0

>  <JCHEM_PKA_STRONGEST_ACIDIC>  (1) 
1.8550572064469137

>  <JCHEM_PKA_STRONGEST_BASIC>  (1) 
-6.744159309169687

>  <JCHEM_POLAR_SURFACE_AREA>  (1) 
111.19

>  <JCHEM_REFRACTIVITY>  (1) 
215.8651

>  <JCHEM_ROTATABLE_BOND_COUNT>  (1) 
40

>  <JCHEM_RULE_OF_FIVE>  (1) 
0

>  <JCHEM_TRADITIONAL_IUPAC>  (1) 
dipalmitoylphosphatidylcholine

>  <JCHEM_VEBER_RULE>  (1) 
0

>  <MOLECULAR_WEIGHT>  (1) 
734.0389

>  <PRODUCTS>  (1) 
Exosurf Neonatal; Surfaxin

>  <SMILES>  (1) 
CCCCCCCCCCCCCCCC(=O)OC[C@H](COP([O-])(=O)OCC[N+](C)(C)C)OC(=O)CCCCCCCCCCCCCCC

$$$$
