
     RDKit          2D

120125  0  0  0  0  0  0  0  0999 V2000
    1.1664    4.3342    0.0000 N   0  0  0  0  0  0  0  0  0  0  0  0
    1.9510    5.4141    0.0000 S   0  0  0  0  0  0  0  0  0  0  0  0
    3.1504    4.3342    0.0000 C   0  0  0  0  0  0  0  0  0  0  0  0
    2.4359    4.7467    0.0000 C   0  0  0  0  0  0  0  0  0  0  0  0
    3.1504    5.1592    0.0000 C   0  0  0  0  0  0  0  0  0  0  0  0
    1.9510    4.0792    0.0000 C   0  0  0  0  0  0  0  0  0  0  0  0
    3.0129    3.1231    0.0000 O   0  0  0  0  0  0  0  0  0  0  0  0
    2.2059    3.2946    0.0000 C   0  0  0  0  0  0  0  0  0  0  0  0
    1.6539    2.6815    0.0000 O   0  0  0  0  0  0  0  0  0  0  0  0
    0.3414    5.1592    0.0000 C   0  0  0  0  0  0  0  0  0  0  0  0
   -0.3730    5.5717    0.0000 N   0  0  0  0  0  0  0  0  0  0  0  0
   -1.0875    5.1592    0.0000 C   0  0  0  0  0  0  0  0  0  0  0  0
   -1.0875    4.3342    0.0000 O   0  0  0  0  0  0  0  0  0  0  0  0
   -1.8019    5.5717    0.0000 C   0  0  0  0  0  0  0  0  0  0  0  0
   -3.2309    5.5717    0.0000 C   0  0  0  0  0  0  0  0  0  0  0  0
   -3.9454    5.1592    0.0000 C   0  0  0  0  0  0  0  0  0  0  0  0
   -3.9454    4.3342    0.0000 C   0  0  0  0  0  0  0  0  0  0  0  0
   -3.2309    3.9217    0.0000 C   0  0  0  0  0  0  0  0  0  0  0  0
   -2.5164    4.3342    0.0000 C   0  0  0  0  0  0  0  0  0  0  0  0
   -2.5164    5.1592    0.0000 C   0  0  0  0  0  0  0  0  0  0  0  0
    0.3414    4.3342    0.0000 C   0  0  0  0  0  0  0  0  0  0  0  0
   -0.2419    3.7508    0.0000 O   0  0  0  0  0  0  0  0  0  0  0  0
    1.1664    5.1592    0.0000 C   0  0  0  0  0  0  0  0  0  0  0  0
   -3.2309    0.6217    0.0000 C   0  0  0  0  0  0  0  0  0  0  0  0
    1.1664   -0.6157    0.0000 N   0  0  0  0  0  0  0  0  0  0  0  0
    1.9510    0.4641    0.0000 S   0  0  0  0  0  0  0  0  0  0  0  0
    3.1504   -0.6157    0.0000 C   0  0  0  0  0  0  0  0  0  0  0  0
    2.4359   -0.2032    0.0000 C   0  0  0  0  0  0  0  0  0  0  0  0
    3.1504    0.2092    0.0000 C   0  0  0  0  0  0  0  0  0  0  0  0
    1.9510   -0.8707    0.0000 C   0  0  0  0  0  0  0  0  0  0  0  0
    3.0129   -1.8268    0.0000 O   0  0  0  0  0  0  0  0  0  0  0  0
    2.2059   -1.6553    0.0000 C   0  0  0  0  0  0  0  0  0  0  0  0
    1.6539   -2.2684    0.0000 O   0  0  0  0  0  0  0  0  0  0  0  0
    0.3414    0.2092    0.0000 C   0  0  0  0  0  0  0  0  0  0  0  0
   -0.3730    0.6217    0.0000 N   0  0  0  0  0  0  0  0  0  0  0  0
   -1.0875    0.2092    0.0000 C   0  0  0  0  0  0  0  0  0  0  0  0
   -1.0875   -0.6157    0.0000 O   0  0  0  0  0  0  0  0  0  0  0  0
   -1.8019    0.6217    0.0000 C   0  0  0  0  0  0  0  0  0  0  0  0
   -3.9454    0.2092    0.0000 C   0  0  0  0  0  0  0  0  0  0  0  0
   -3.9454   -0.6157    0.0000 C   0  0  0  0  0  0  0  0  0  0  0  0
   -3.2309   -1.0282    0.0000 C   0  0  0  0  0  0  0  0  0  0  0  0
   -2.5164   -0.6157    0.0000 C   0  0  0  0  0  0  0  0  0  0  0  0
   -2.5164    0.2092    0.0000 C   0  0  0  0  0  0  0  0  0  0  0  0
    0.3414   -0.6157    0.0000 C   0  0  0  0  0  0  0  0  0  0  0  0
   -0.2419   -1.1991    0.0000 O   0  0  0  0  0  0  0  0  0  0  0  0
    1.1664    0.2092    0.0000 C   0  0  0  0  0  0  0  0  0  0  0  0
   -1.0490   -4.7488    0.0000 N   0  0  0  0  0  0  0  0  0  0  0  0
    1.0801   -4.3282    0.0000 N   0  0  0  0  0  0  0  0  0  0  0  0
   -2.5211   -4.7488    0.0000 C   0  0  0  0  0  0  0  0  0  0  0  0
    2.5259   -4.3282    0.0000 C   0  0  0  0  0  0  0  0  0  0  0  0
   -1.7851   -4.3282    0.0000 C   0  0  0  0  0  0  0  0  0  0  0  0
    1.8161   -4.7488    0.0000 C   0  0  0  0  0  0  0  0  0  0  0  0
   -0.3393   -4.3282    0.0000 C   0  0  0  0  0  0  0  0  0  0  0  0
    0.3703   -4.7488    0.0000 C   0  0  0  0  0  0  0  0  0  0  0  0
   -2.5211   -5.5900    0.0000 C   0  0  0  0  0  0  0  0  0  0  0  0
    3.2356   -4.7488    0.0000 C   0  0  0  0  0  0  0  0  0  0  0  0
   -3.2309   -4.3282    0.0000 C   0  0  0  0  0  0  0  0  0  0  0  0
    2.5259   -3.4870    0.0000 C   0  0  0  0  0  0  0  0  0  0  0  0
   -3.9406   -4.7488    0.0000 C   0  0  0  0  0  0  0  0  0  0  0  0
   -3.2309   -5.9842    0.0000 C   0  0  0  0  0  0  0  0  0  0  0  0
    3.2356   -3.0927    0.0000 C   0  0  0  0  0  0  0  0  0  0  0  0
    3.9454   -4.3282    0.0000 C   0  0  0  0  0  0  0  0  0  0  0  0
    3.9454   -3.4870    0.0000 C   0  0  0  0  0  0  0  0  0  0  0  0
   -3.9406   -5.5900    0.0000 C   0  0  0  0  0  0  0  0  0  0  0  0
    0.0000    0.0000    0.0000 H   0  0  0  0  0  0  0  0  0  0  0  0
    0.0000    0.0000    0.0000 H   0  0  0  0  0  0  0  0  0  0  0  0
    0.0000    0.0000    0.0000 H   0  0  0  0  0  0  0  0  0  0  0  0
    0.0000    0.0000    0.0000 H   0  0  0  0  0  0  0  0  0  0  0  0
    0.0000    0.0000    0.0000 H   0  0  0  0  0  0  0  0  0  0  0  0
    0.0000    0.0000    0.0000 H   0  0  0  0  0  0  0  0  0  0  0  0
    0.0000    0.0000    0.0000 H   0  0  0  0  0  0  0  0  0  0  0  0
    0.0000    0.0000    0.0000 H   0  0  0  0  0  0  0  0  0  0  0  0
    0.0000    0.0000    0.0000 H   0  0  0  0  0  0  0  0  0  0  0  0
    0.0000    0.0000    0.0000 H   0  0  0  0  0  0  0  0  0  0  0  0
    0.0000    0.0000    0.0000 H   0  0  0  0  0  0  0  0  0  0  0  0
    0.0000    0.0000    0.0000 H   0  0  0  0  0  0  0  0  0  0  0  0
    0.0000    0.0000    0.0000 H   0  0  0  0  0  0  0  0  0  0  0  0
    0.0000    0.0000    0.0000 H   0  0  0  0  0  0  0  0  0  0  0  0
    0.0000    0.0000    0.0000 H   0  0  0  0  0  0  0  0  0  0  0  0
    0.0000    0.0000    0.0000 H   0  0  0  0  0  0  0  0  0  0  0  0
    0.0000    0.0000    0.0000 H   0  0  0  0  0  0  0  0  0  0  0  0
    0.0000    0.0000    0.0000 H   0  0  0  0  0  0  0  0  0  0  0  0
    0.0000    0.0000    0.0000 H   0  0  0  0  0  0  0  0  0  0  0  0
    0.0000    0.0000    0.0000 H   0  0  0  0  0  0  0  0  0  0  0  0
    0.0000    0.0000    0.0000 H   0  0  0  0  0  0  0  0  0  0  0  0
    0.0000    0.0000    0.0000 H   0  0  0  0  0  0  0  0  0  0  0  0
    0.0000    0.0000    0.0000 H   0  0  0  0  0  0  0  0  0  0  0  0
    0.0000    0.0000    0.0000 H   0  0  0  0  0  0  0  0  0  0  0  0
    0.0000    0.0000    0.0000 H   0  0  0  0  0  0  0  0  0  0  0  0
    0.0000    0.0000    0.0000 H   0  0  0  0  0  0  0  0  0  0  0  0
    0.0000    0.0000    0.0000 H   0  0  0  0  0  0  0  0  0  0  0  0
    0.0000    0.0000    0.0000 H   0  0  0  0  0  0  0  0  0  0  0  0
    0.0000    0.0000    0.0000 H   0  0  0  0  0  0  0  0  0  0  0  0
    0.0000    0.0000    0.0000 H   0  0  0  0  0  0  0  0  0  0  0  0
    0.0000    0.0000    0.0000 H   0  0  0  0  0  0  0  0  0  0  0  0
    0.0000    0.0000    0.0000 H   0  0  0  0  0  0  0  0  0  0  0  0
    0.0000    0.0000    0.0000 H   0  0  0  0  0  0  0  0  0  0  0  0
    0.0000    0.0000    0.0000 H   0  0  0  0  0  0  0  0  0  0  0  0
    0.0000    0.0000    0.0000 H   0  0  0  0  0  0  0  0  0  0  0  0
    0.0000    0.0000    0.0000 H   0  0  0  0  0  0  0  0  0  0  0  0
    0.0000    0.0000    0.0000 H   0  0  0  0  0  0  0  0  0  0  0  0
    0.0000    0.0000    0.0000 H   0  0  0  0  0  0  0  0  0  0  0  0
    0.0000    0.0000    0.0000 H   0  0  0  0  0  0  0  0  0  0  0  0
    0.0000    0.0000    0.0000 H   0  0  0  0  0  0  0  0  0  0  0  0
    0.0000    0.0000    0.0000 H   0  0  0  0  0  0  0  0  0  0  0  0
    0.0000    0.0000    0.0000 H   0  0  0  0  0  0  0  0  0  0  0  0
    0.0000    0.0000    0.0000 H   0  0  0  0  0  0  0  0  0  0  0  0
    0.0000    0.0000    0.0000 H   0  0  0  0  0  0  0  0  0  0  0  0
    0.0000    0.0000    0.0000 H   0  0  0  0  0  0  0  0  0  0  0  0
    0.0000    0.0000    0.0000 H   0  0  0  0  0  0  0  0  0  0  0  0
    0.0000    0.0000    0.0000 H   0  0  0  0  0  0  0  0  0  0  0  0
    0.0000    0.0000    0.0000 H   0  0  0  0  0  0  0  0  0  0  0  0
    0.0000    0.0000    0.0000 H   0  0  0  0  0  0  0  0  0  0  0  0
    0.0000    0.0000    0.0000 H   0  0  0  0  0  0  0  0  0  0  0  0
    0.0000    0.0000    0.0000 H   0  0  0  0  0  0  0  0  0  0  0  0
    0.0000    0.0000    0.0000 H   0  0  0  0  0  0  0  0  0  0  0  0
    0.0000    0.0000    0.0000 H   0  0  0  0  0  0  0  0  0  0  0  0
    0.0000    0.0000    0.0000 H   0  0  0  0  0  0  0  0  0  0  0  0
    0.0000    0.0000    0.0000 H   0  0  0  0  0  0  0  0  0  0  0  0
    0.0000    0.0000    0.0000 H   0  0  0  0  0  0  0  0  0  0  0  0
 23 10  1  0
 10 21  1  0
 21  1  1  0
  1  6  1  0
 23  1  1  0
  2 23  1  0
  2  4  1  0
  6  4  1  0
  4  3  1  0
  4  5  1  0
  6  8  1  6
  8  7  1  0
  8  9  2  0
 10 11  1  1
 11 12  1  0
 12 14  1  0
 12 13  2  0
 14 20  1  0
 15 16  2  0
 15 20  1  0
 16 17  1  0
 17 18  2  0
 18 19  1  0
 19 20  2  0
 21 22  2  0
 24 39  2  0
 24 43  1  0
 46 34  1  0
 34 44  1  0
 44 25  1  0
 25 30  1  0
 46 25  1  0
 26 46  1  0
 26 28  1  0
 30 28  1  0
 28 27  1  0
 28 29  1  0
 30 32  1  1
 32 31  1  0
 32 33  2  0
 34 35  1  1
 35 36  1  0
 36 38  1  0
 36 37  2  0
 38 43  1  0
 39 40  1  0
 40 41  2  0
 41 42  1  0
 42 43  2  0
 44 45  2  0
 51 47  1  0
 53 47  1  0
 54 48  1  0
 52 48  1  0
 51 49  1  0
 55 49  2  0
 57 49  1  0
 52 50  1  0
 56 50  2  0
 58 50  1  0
 54 53  1  0
 60 55  1  0
 62 56  1  0
 59 57  2  0
 61 58  2  0
 64 59  1  0
 64 60  2  0
 63 61  1  0
 63 62  2  0
  3 65  1  0
  3 66  1  0
  3 67  1  0
  5 68  1  0
  5 69  1  0
  5 70  1  0
  6 71  1  0
 10 72  1  0
 11 73  1  0
 14 74  1  0
 14 75  1  0
 15 76  1  0
 16 77  1  0
 17 78  1  0
 18 79  1  0
 19 80  1  0
 23 81  1  6
 24 82  1  0
 27 83  1  0
 27 84  1  0
 27 85  1  0
 29 86  1  0
 29 87  1  0
 29 88  1  0
 30 89  1  0
 34 90  1  0
 35 91  1  0
 38 92  1  0
 38 93  1  0
 39 94  1  0
 40 95  1  0
 41 96  1  0
 42 97  1  0
 46 98  1  6
 47 99  1  0
 47100  1  0
 48101  1  0
 48102  1  0
 51103  1  0
 51104  1  0
 52105  1  0
 52106  1  0
 53107  1  0
 53108  1  0
 54109  1  0
 54110  1  0
 55111  1  0
 56112  1  0
 57113  1  0
 58114  1  0
 59115  1  0
 60116  1  0
 61117  1  0
 62118  1  0
 63119  1  0
 64120  1  0
M  CHG  4   7  -1  31  -1  47   1  48   1
M  END
>  <ALOGPS_LOGP>  (1) 
3.86

>  <ALOGPS_LOGS>  (1) 
-6.75

>  <ALOGPS_SOLUBILITY>  (1) 
1.62e-04 g/l

>  <DATABASE_ID>  (1) 
DB09323

>  <DATABASE_NAME>  (1) 
drugbank

>  <DRUGBANK_ID>  (1) 
DB09323

>  <DRUG_GROUPS>  (1) 
approved; vet_approved

>  <EXACT_MASS>  (1) 
908.360105135

>  <FORMULA>  (1) 
C48H56N6O8S2

>  <GENERIC_NAME>  (1) 
Benzathine benzylpenicillin

>  <INCHI_IDENTIFIER>  (1) 
InChI=1S/2C16H18N2O4S.C16H20N2/c2*1-16(2)12(15(21)22)18-13(20)11(14(18)23-16)17-10(19)8-9-6-4-3-5-7-9;1-3-7-15(8-4-1)13-17-11-12-18-14-16-9-5-2-6-10-16/h2*3-7,11-12,14H,8H2,1-2H3,(H,17,19)(H,21,22);1-10,17-18H,11-14H2/t2*11-,12+,14-;/m11./s1

>  <INCHI_KEY>  (1) 
BVGLIYRKPOITBQ-ANPZCEIESA-N

>  <JCHEM_ACCEPTOR_COUNT>  (1) 
4

>  <JCHEM_ATOM_COUNT>  (1) 
120

>  <JCHEM_AVERAGE_POLARIZABILITY>  (1) 
33.43537696442991

>  <JCHEM_BIOAVAILABILITY>  (1) 
0

>  <JCHEM_DONOR_COUNT>  (1) 
1

>  <JCHEM_FORMAL_CHARGE>  (1) 
0

>  <JCHEM_GHOSE_FILTER>  (1) 
0

>  <JCHEM_IUPAC>  (1) 
benzyl[2-(benzylazaniumyl)ethyl]azanium bis((2S,5R,6R)-3,3-dimethyl-7-oxo-6-(2-phenylacetamido)-4-thia-1-azabicyclo[3.2.0]heptane-2-carboxylate)

>  <JCHEM_LOGP>  (1) 
1.0806779529999997

>  <JCHEM_MDDR_LIKE_RULE>  (1) 
1

>  <JCHEM_NUMBER_OF_RINGS>  (1) 
8

>  <JCHEM_PHYSIOLOGICAL_CHARGE>  (1) 
-1

>  <JCHEM_PKA>  (1) 
12.119397282151532

>  <JCHEM_PKA_STRONGEST_ACIDIC>  (1) 
3.529281016771107

>  <JCHEM_PKA_STRONGEST_BASIC>  (1) 
-2.764219397085278

>  <JCHEM_POLAR_SURFACE_AREA>  (1) 
89.53999999999999

>  <JCHEM_REFRACTIVITY>  (1) 
95.3649

>  <JCHEM_ROTATABLE_BOND_COUNT>  (1) 
15

>  <JCHEM_RULE_OF_FIVE>  (1) 
0

>  <JCHEM_TRADITIONAL_IUPAC>  (1) 
benzathine(2+); bis(benzylpenicillin(1-))

>  <JCHEM_VEBER_RULE>  (1) 
0

>  <MOLECULAR_WEIGHT>  (1) 
909.13

>  <PRODUCTS>  (1) 
Bicillin A-P Injection Pws; Bicillin C-R 900/300; Bicillin CR; Bicillin L-A; Bicillin L-A Injection Sus 1200000iu/2ml; Megacillin 250 Pedi Sus; Megacillin 500 Sus

>  <SMILES>  (1) 
[H][N+]([H])(CC[N+]([H])([H])CC1=CC=CC=C1)CC1=CC=CC=C1.[H][C@]12SC(C)(C)[C@@H](N1C(=O)[C@H]2NC(=O)CC1=CC=CC=C1)C([O-])=O.[H][C@]12SC(C)(C)[C@@H](N1C(=O)[C@H]2NC(=O)CC1=CC=CC=C1)C([O-])=O

>  <SYNONYMS>  (1) 
Benzathine penicillin; Benzylpenicillin benzathine; Penicillin G benzathine

$$$$
