
     RDKit          2D

  8  6  0  0  0  0  0  0  0  0999 V2000
    1.9384   -2.6400    0.0000 K   0  0  0  0  0  0  0  0  0  0  0  0
   -1.1133    0.9900    0.0000 O   0  0  0  0  0  0  0  0  0  0  0  0
   -1.1133    1.8150    0.0000 P   0  0  0  0  0  0  0  0  0  0  0  0
   -1.9384    1.8150    0.0000 O   0  0  0  0  0  0  0  0  0  0  0  0
   -0.2892    1.8150    0.0000 O   0  0  0  0  0  0  0  0  0  0  0  0
   -1.1133    2.6400    0.0000 O   0  0  0  0  0  0  0  0  0  0  0  0
    0.0000    0.0000    0.0000 H   0  0  0  0  0  0  0  0  0  0  0  0
    0.0000    0.0000    0.0000 H   0  0  0  0  0  0  0  0  0  0  0  0
  2  3  1  0
  3  4  1  0
  3  5  2  0
  3  6  1  0
  2  7  1  0
  4  8  1  0
M  CHG  2   1   1   6  -1
M  END
>  <DATABASE_ID>  (1) 
DB09413

>  <DATABASE_NAME>  (1) 
drugbank

>  <DRUGBANK_ID>  (1) 
DB09413

>  <DRUG_GROUPS>  (1) 
approved; vet_approved

>  <EXACT_MASS>  (1) 
135.932776925

>  <FORMULA>  (1) 
H2KO4P

>  <GENERIC_NAME>  (1) 
Monopotassium phosphate

>  <INCHI_IDENTIFIER>  (1) 
InChI=1S/K.H3O4P/c;1-5(2,3)4/h;(H3,1,2,3,4)/q+1;/p-1

>  <INCHI_KEY>  (1) 
GNSKLFRGEWLPPA-UHFFFAOYSA-M

>  <JCHEM_ACCEPTOR_COUNT>  (1) 
4

>  <JCHEM_AVERAGE_POLARIZABILITY>  (1) 
5.527151169555154

>  <JCHEM_BIOAVAILABILITY>  (1) 
1

>  <JCHEM_DONOR_COUNT>  (1) 
2

>  <JCHEM_FORMAL_CHARGE>  (1) 
0

>  <JCHEM_GHOSE_FILTER>  (1) 
0

>  <JCHEM_IUPAC>  (1) 
potassium dihydrogen phosphate

>  <JCHEM_LOGP>  (1) 
-1.0201038226666665

>  <JCHEM_MDDR_LIKE_RULE>  (1) 
0

>  <JCHEM_NUMBER_OF_RINGS>  (1) 
0

>  <JCHEM_PHYSIOLOGICAL_CHARGE>  (1) 
-2

>  <JCHEM_PKA>  (1) 
6.951626889535468

>  <JCHEM_PKA_STRONGEST_ACIDIC>  (1) 
1.7961261340181292

>  <JCHEM_POLAR_SURFACE_AREA>  (1) 
80.59

>  <JCHEM_REFRACTIVITY>  (1) 
13.5302

>  <JCHEM_ROTATABLE_BOND_COUNT>  (1) 
0

>  <JCHEM_RULE_OF_FIVE>  (1) 
1

>  <JCHEM_TRADITIONAL_IUPAC>  (1) 
potassium dihydrogen phosphate

>  <JCHEM_VEBER_RULE>  (1) 
0

>  <MOLECULAR_WEIGHT>  (1) 
136.0855

>  <PRODUCTS>  (1) 
Artisial; Dextrose 5% and Electrolyte No75 Inj; Dibasic Sodium Phosphate, Monobasic Potassium Phosphate and Monobasic Sodium Phosphate; Formula O-care Vitamin and Mineral Supplement; Isolyte S Ph 7.4 (multi-electrolyte Injection); Isoplate; K Phos Neutral; K Phos Original; K-Phos No. 2; Neutralite Liq; Phosphate De Potassium Monobasic Inj 176mg/ml; Potassium Phosphate Inj 3mmp/ml; Potassium Phosphates; Potassium Phosphates Inj; Potassium Phosphates Injection, USP; Powertech Vitamin and Mineral Supplement; Tis-U-sol; Tis-U-sol Solution; Uralgic

>  <SMILES>  (1) 
[K+].OP(O)([O-])=O

>  <SYNONYMS>  (1) 
Potassium phosphate monobasic; Potassium phosphate, monobasic

$$$$
