
     RDKit          2D

101105  0  0  0  0  0  0  0  0999 V2000
    0.4682   -4.7091    0.0000 C   0  0  0  0  0  0  0  0  0  0  0  0
    0.1600   -5.7692    0.0000 C   0  0  0  0  0  0  0  0  0  0  0  0
    1.7740   -0.9961    0.0000 C   0  0  0  0  0  0  0  0  0  0  0  0
    2.8462   -0.7329    0.0000 C   0  0  0  0  0  0  0  0  0  0  0  0
    0.0492   -2.4756    0.0000 C   0  0  0  0  0  0  0  0  0  0  0  0
    0.7762   -2.8656    0.0000 C   0  0  0  0  0  0  0  0  0  0  0  0
    0.0235   -1.6510    0.0000 C   0  0  0  0  0  0  0  0  0  0  0  0
    0.8020   -3.6902    0.0000 C   0  0  0  0  0  0  0  0  0  0  0  0
    0.7247   -1.2164    0.0000 C   0  0  0  0  0  0  0  0  0  0  0  0
    0.0121   -8.3676    0.0000 C   0  0  0  0  0  0  0  0  0  0  0  0
    5.1704    0.4383    0.0000 C   0  0  0  0  0  0  0  0  0  0  0  0
   -0.4225   -7.6664    0.0000 C   0  0  0  0  0  0  0  0  0  0  0  0
    4.7804   -0.2887    0.0000 C   0  0  0  0  0  0  0  0  0  0  0  0
    3.6433   -5.6219    0.0000 C   0  0  0  0  0  0  0  0  0  0  0  0
    0.9770    2.2101    0.0000 C   0  0  0  0  0  0  0  0  0  0  0  0
    4.4196   -5.3426    0.0000 C   0  0  0  0  0  0  0  0  0  0  0  0
    0.3469    2.7427    0.0000 C   0  0  0  0  0  0  0  0  0  0  0  0
    0.8367   -8.3418    0.0000 C   0  0  0  0  0  0  0  0  0  0  0  0
    4.7358    1.1395    0.0000 C   0  0  0  0  0  0  0  0  0  0  0  0
   -0.0325   -6.9394    0.0000 C   0  0  0  0  0  0  0  0  0  0  0  0
    3.9558   -0.3145    0.0000 C   0  0  0  0  0  0  0  0  0  0  0  0
    1.5290   -4.0802    0.0000 C   0  0  0  0  0  0  0  0  0  0  0  0
    0.6989   -0.3918    0.0000 C   0  0  0  0  0  0  0  0  0  0  0  0
    2.0513   -7.5891    0.0000 C   0  0  0  0  0  0  0  0  0  0  0  0
    3.4766    1.8150    0.0000 C   0  0  0  0  0  0  0  0  0  0  0  0
    2.4413   -6.8621    0.0000 C   0  0  0  0  0  0  0  0  0  0  0  0
    2.6520    1.7892    0.0000 C   0  0  0  0  0  0  0  0  0  0  0  0
    3.0133   -5.0893    0.0000 C   0  0  0  0  0  0  0  0  0  0  0  0
    0.8307    1.3982    0.0000 C   0  0  0  0  0  0  0  0  0  0  0  0
    5.0496   -5.8752    0.0000 C   0  0  0  0  0  0  0  0  0  0  0  0
    0.4932    3.5547    0.0000 C   0  0  0  0  0  0  0  0  0  0  0  0
    1.2267   -7.6148    0.0000 C   0  0  0  0  0  0  0  0  0  0  0  0
    3.9112    1.1137    0.0000 C   0  0  0  0  0  0  0  0  0  0  0  0
    0.7921   -6.9136    0.0000 C   0  0  0  0  0  0  0  0  0  0  0  0
    3.5212    0.3867    0.0000 C   0  0  0  0  0  0  0  0  0  0  0  0
    2.0067   -6.1608    0.0000 C   0  0  0  0  0  0  0  0  0  0  0  0
    2.2620    1.0622    0.0000 C   0  0  0  0  0  0  0  0  0  0  0  0
    1.5548   -4.9048    0.0000 C   0  0  0  0  0  0  0  0  0  0  0  0
    1.4002    0.0428    0.0000 C   0  0  0  0  0  0  0  0  0  0  0  0
    1.1821   -6.1866    0.0000 C   0  0  0  0  0  0  0  0  0  0  0  0
    2.6966    0.3610    0.0000 C   0  0  0  0  0  0  0  0  0  0  0  0
    0.9028   -5.4103    0.0000 C   0  0  0  0  0  0  0  0  0  0  0  0
    2.1640   -0.2691    0.0000 C   0  0  0  0  0  0  0  0  0  0  0  0
    2.2370   -5.3686    0.0000 N   0  0  0  0  0  0  0  0  0  0  0  0
    1.4608    0.8656    0.0000 N   0  0  0  0  0  0  0  0  0  0  0  0
    4.0915   -6.5409    0.0000 O   0  0  0  0  0  0  0  0  0  0  0  0
    4.7572   -7.4991    0.0000 O   0  0  0  0  0  0  0  0  0  0  0  0
    5.7153   -6.8334    0.0000 O   0  0  0  0  0  0  0  0  0  0  0  0
   -0.7669    4.6199    0.0000 O   0  0  0  0  0  0  0  0  0  0  0  0
   -0.6695    3.4573    0.0000 O   0  0  0  0  0  0  0  0  0  0  0  0
    0.3958    4.7173    0.0000 O   0  0  0  0  0  0  0  0  0  0  0  0
    4.9034   -6.6872    0.0000 S   0  0  0  0  0  0  0  0  0  0  0  0
   -0.1369    4.0873    0.0000 S   0  0  0  0  0  0  0  0  0  0  0  0
    4.6109   -8.3110    0.0000 Na  0  0  0  0  0  0  0  0  0  0  0  0
    0.0000    0.0000    0.0000 H   0  0  0  0  0  0  0  0  0  0  0  0
    0.0000    0.0000    0.0000 H   0  0  0  0  0  0  0  0  0  0  0  0
    0.0000    0.0000    0.0000 H   0  0  0  0  0  0  0  0  0  0  0  0
    0.0000    0.0000    0.0000 H   0  0  0  0  0  0  0  0  0  0  0  0
    0.0000    0.0000    0.0000 H   0  0  0  0  0  0  0  0  0  0  0  0
    0.0000    0.0000    0.0000 H   0  0  0  0  0  0  0  0  0  0  0  0
    0.0000    0.0000    0.0000 H   0  0  0  0  0  0  0  0  0  0  0  0
    0.0000    0.0000    0.0000 H   0  0  0  0  0  0  0  0  0  0  0  0
    0.0000    0.0000    0.0000 H   0  0  0  0  0  0  0  0  0  0  0  0
    0.0000    0.0000    0.0000 H   0  0  0  0  0  0  0  0  0  0  0  0
    0.0000    0.0000    0.0000 H   0  0  0  0  0  0  0  0  0  0  0  0
    0.0000    0.0000    0.0000 H   0  0  0  0  0  0  0  0  0  0  0  0
    0.0000    0.0000    0.0000 H   0  0  0  0  0  0  0  0  0  0  0  0
    0.0000    0.0000    0.0000 H   0  0  0  0  0  0  0  0  0  0  0  0
    0.0000    0.0000    0.0000 H   0  0  0  0  0  0  0  0  0  0  0  0
    0.0000    0.0000    0.0000 H   0  0  0  0  0  0  0  0  0  0  0  0
    0.0000    0.0000    0.0000 H   0  0  0  0  0  0  0  0  0  0  0  0
    0.0000    0.0000    0.0000 H   0  0  0  0  0  0  0  0  0  0  0  0
    0.0000    0.0000    0.0000 H   0  0  0  0  0  0  0  0  0  0  0  0
    0.0000    0.0000    0.0000 H   0  0  0  0  0  0  0  0  0  0  0  0
    0.0000    0.0000    0.0000 H   0  0  0  0  0  0  0  0  0  0  0  0
    0.0000    0.0000    0.0000 H   0  0  0  0  0  0  0  0  0  0  0  0
    0.0000    0.0000    0.0000 H   0  0  0  0  0  0  0  0  0  0  0  0
    0.0000    0.0000    0.0000 H   0  0  0  0  0  0  0  0  0  0  0  0
    0.0000    0.0000    0.0000 H   0  0  0  0  0  0  0  0  0  0  0  0
    0.0000    0.0000    0.0000 H   0  0  0  0  0  0  0  0  0  0  0  0
    0.0000    0.0000    0.0000 H   0  0  0  0  0  0  0  0  0  0  0  0
    0.0000    0.0000    0.0000 H   0  0  0  0  0  0  0  0  0  0  0  0
    0.0000    0.0000    0.0000 H   0  0  0  0  0  0  0  0  0  0  0  0
    0.0000    0.0000    0.0000 H   0  0  0  0  0  0  0  0  0  0  0  0
    0.0000    0.0000    0.0000 H   0  0  0  0  0  0  0  0  0  0  0  0
    0.0000    0.0000    0.0000 H   0  0  0  0  0  0  0  0  0  0  0  0
    0.0000    0.0000    0.0000 H   0  0  0  0  0  0  0  0  0  0  0  0
    0.0000    0.0000    0.0000 H   0  0  0  0  0  0  0  0  0  0  0  0
    0.0000    0.0000    0.0000 H   0  0  0  0  0  0  0  0  0  0  0  0
    0.0000    0.0000    0.0000 H   0  0  0  0  0  0  0  0  0  0  0  0
    0.0000    0.0000    0.0000 H   0  0  0  0  0  0  0  0  0  0  0  0
    0.0000    0.0000    0.0000 H   0  0  0  0  0  0  0  0  0  0  0  0
    0.0000    0.0000    0.0000 H   0  0  0  0  0  0  0  0  0  0  0  0
    0.0000    0.0000    0.0000 H   0  0  0  0  0  0  0  0  0  0  0  0
    0.0000    0.0000    0.0000 H   0  0  0  0  0  0  0  0  0  0  0  0
    0.0000    0.0000    0.0000 H   0  0  0  0  0  0  0  0  0  0  0  0
    0.0000    0.0000    0.0000 H   0  0  0  0  0  0  0  0  0  0  0  0
    0.0000    0.0000    0.0000 H   0  0  0  0  0  0  0  0  0  0  0  0
    0.0000    0.0000    0.0000 H   0  0  0  0  0  0  0  0  0  0  0  0
    0.0000    0.0000    0.0000 H   0  0  0  0  0  0  0  0  0  0  0  0
    0.0000    0.0000    0.0000 H   0  0  0  0  0  0  0  0  0  0  0  0
  6  5  2  3
  7  5  1  0
  6  8  1  0
  9  7  2  3
 12 10  2  0
 13 11  2  0
 16 14  1  0
 17 15  1  0
 18 10  1  0
 19 11  1  0
 20 12  1  0
 21 13  1  0
 22  8  2  3
  9 23  1  0
 26 24  2  0
 27 25  2  0
 28 14  1  0
 29 15  1  0
 30 16  1  0
 31 17  1  0
 32 18  2  0
 32 24  1  0
 33 19  2  0
 33 25  1  0
 34 20  2  0
 34 32  1  0
 35 21  2  0
 35 33  1  0
 36 26  1  0
 37 27  1  0
 22 38  1  0
 39 23  2  3
 40 34  1  0
 40 36  2  0
 41 35  1  0
 41 37  2  0
 42  1  1  0
 42  2  1  0
 42 38  1  0
 42 40  1  0
 43  3  1  0
 43  4  1  0
 39 43  1  0
 43 41  1  0
 44 28  1  0
 44 36  1  0
 44 38  2  0
 45 29  1  0
 45 37  1  0
 45 39  1  0
 52 30  1  0
 52 46  2  0
 52 47  1  0
 52 48  2  0
 53 31  1  0
 53 49  1  0
 53 50  2  0
 53 51  2  0
  1 55  1  0
  1 56  1  0
  1 57  1  0
  2 58  1  0
  2 59  1  0
  2 60  1  0
  3 61  1  0
  3 62  1  0
  3 63  1  0
  4 64  1  0
  4 65  1  0
  4 66  1  0
  5 67  1  0
  6 68  1  0
  7 69  1  0
  8 70  1  0
  9 71  1  0
 10 72  1  0
 11 73  1  0
 12 74  1  0
 13 75  1  0
 14 76  1  0
 14 77  1  0
 15 78  1  0
 15 79  1  0
 16 80  1  0
 16 81  1  0
 17 82  1  0
 17 83  1  0
 18 84  1  0
 19 85  1  0
 20 86  1  0
 21 87  1  0
 22 88  1  0
 23 89  1  0
 24 90  1  0
 25 91  1  0
 26 92  1  0
 27 93  1  0
 28 94  1  0
 28 95  1  0
 29 96  1  0
 29 97  1  0
 30 98  1  0
 30 99  1  0
 31100  1  0
 31101  1  0
M  CHG  4  44   1  47  -1  49  -1  54   1
M  END
>  <ALOGPS_LOGP>  (1) 
4.17

>  <ALOGPS_LOGS>  (1) 
-8.27

>  <ALOGPS_SOLUBILITY>  (1) 
4.42e-06 g/l

>  <DATABASE_ID>  (1) 
DB09374

>  <DATABASE_NAME>  (1) 
drugbank

>  <DRUGBANK_ID>  (1) 
DB09374

>  <DRUG_GROUPS>  (1) 
approved

>  <EXACT_MASS>  (1) 
774.27732387

>  <FORMULA>  (1) 
C43H47N2NaO6S2

>  <GENERIC_NAME>  (1) 
Indocyanine green

>  <INCHI_IDENTIFIER>  (1) 
InChI=1S/C43H48N2O6S2.Na/c1-42(2)38(44(28-14-16-30-52(46,47)48)36-26-24-32-18-10-12-20-34(32)40(36)42)22-8-6-5-7-9-23-39-43(3,4)41-35-21-13-11-19-33(35)25-27-37(41)45(39)29-15-17-31-53(49,50)51;/h5-13,18-27H,14-17,28-31H2,1-4H3,(H-,46,47,48,49,50,51);/q;+1/p-1

>  <INCHI_KEY>  (1) 
MOFVSTNWEDAEEK-UHFFFAOYSA-M

>  <JCHEM_ACCEPTOR_COUNT>  (1) 
7

>  <JCHEM_ATOM_COUNT>  (1) 
101

>  <JCHEM_AVERAGE_POLARIZABILITY>  (1) 
86.72912191266772

>  <JCHEM_BIOAVAILABILITY>  (1) 
0

>  <JCHEM_DONOR_COUNT>  (1) 
0

>  <JCHEM_FORMAL_CHARGE>  (1) 
0

>  <JCHEM_GHOSE_FILTER>  (1) 
0

>  <JCHEM_IUPAC>  (1) 
sodium 2-{7-[1,1-dimethyl-3-(4-sulfonatobutyl)-1H,2H,3H-benzo[e]indol-2-ylidene]hepta-1,3,5-trien-1-yl}-1,1-dimethyl-3-(4-sulfonatobutyl)-1H-benzo[e]indol-3-ium

>  <JCHEM_LOGP>  (1) 
6.053551064213665

>  <JCHEM_MDDR_LIKE_RULE>  (1) 
1

>  <JCHEM_NUMBER_OF_RINGS>  (1) 
6

>  <JCHEM_PHYSIOLOGICAL_CHARGE>  (1) 
-1

>  <JCHEM_PKA>  (1) 
-0.30677117147386124

>  <JCHEM_PKA_STRONGEST_ACIDIC>  (1) 
-0.9356999106150496

>  <JCHEM_PKA_STRONGEST_BASIC>  (1) 
2.6553146955482974

>  <JCHEM_POLAR_SURFACE_AREA>  (1) 
120.64999999999998

>  <JCHEM_REFRACTIVITY>  (1) 
228.88310000000004

>  <JCHEM_ROTATABLE_BOND_COUNT>  (1) 
14

>  <JCHEM_RULE_OF_FIVE>  (1) 
0

>  <JCHEM_TRADITIONAL_IUPAC>  (1) 
sodium 2-{7-[1,1-dimethyl-3-(4-sulfonatobutyl)benzo[e]indol-2-ylidene]hepta-1,3,5-trien-1-yl}-1,1-dimethyl-3-(4-sulfonatobutyl)benzo[e]indol-3-ium

>  <JCHEM_VEBER_RULE>  (1) 
0

>  <MOLECULAR_WEIGHT>  (1) 
774.97

>  <PRODUCTS>  (1) 
IC-Green; Ic-green; Indocyanine green

>  <SALTS>  (1) 
indocyanine green sodium

>  <SMILES>  (1) 
[Na+].CC1(C)C(=CC=CC=CC=CC2=[N+](CCCCS([O-])(=O)=O)C3=C(C4=CC=CC=C4C=C3)C2(C)C)N(CCCCS([O-])(=O)=O)C2=C1C1=CC=CC=C1C=C2

>  <SYNONYMS>  (1) 
Cardio-Green; Fox Green; sodium 4-(2-{7-[1,1-dimethyl-3-(4-sulfonatobutyl)-1H-benzo[e]indolium-2-yl]hepta-2,4,6-trien-1-ylidene}-1,1-dimethyl-1,2-dihydro-3H-benzo[e]indol-3-yl)butane-1-sulfonate

$$$$
