
     RDKit          2D

 49 50  0  0  0  0  0  0  0  0999 V2000
    0.5984   -1.0216    0.0000 C   0  0  0  0  0  0  0  0  0  0  0  0
   -4.4029    1.0409    0.0000 C   0  0  0  0  0  0  0  0  0  0  0  0
   -4.4029    0.2159    0.0000 C   0  0  0  0  0  0  0  0  0  0  0  0
   -3.6884    1.4534    0.0000 C   0  0  0  0  0  0  0  0  0  0  0  0
    2.9206   -1.1886    0.0000 C   0  0  0  0  0  0  0  0  0  0  0  0
   -3.6884   -0.1966    0.0000 C   0  0  0  0  0  0  0  0  0  0  0  0
   -2.9739    1.0409    0.0000 C   0  0  0  0  0  0  0  0  0  0  0  0
    3.3331   -0.4741    0.0000 C   0  0  0  0  0  0  0  0  0  0  0  0
   -2.2595   -0.1966    0.0000 C   0  0  0  0  0  0  0  0  0  0  0  0
   -1.5450    0.2159    0.0000 C   0  0  0  0  0  0  0  0  0  0  0  0
    2.1136   -1.0171    0.0000 C   0  0  0  0  0  0  0  0  0  0  0  0
    0.5984   -0.1966    0.0000 C   0  0  0  0  0  0  0  0  0  0  0  0
   -2.9739    0.2159    0.0000 C   0  0  0  0  0  0  0  0  0  0  0  0
   -0.8305   -0.1966    0.0000 C   0  0  0  0  0  0  0  0  0  0  0  0
    2.7810    0.1390    0.0000 C   0  0  0  0  0  0  0  0  0  0  0  0
    1.3129    0.2159    0.0000 C   0  0  0  0  0  0  0  0  0  0  0  0
   -0.8305   -1.0216    0.0000 C   0  0  0  0  0  0  0  0  0  0  0  0
    2.9526    0.9460    0.0000 C   0  0  0  0  0  0  0  0  0  0  0  0
   -0.1161    0.2159    0.0000 N   0  0  0  0  0  0  0  0  0  0  0  0
    2.0274   -0.1966    0.0000 N   0  0  0  0  0  0  0  0  0  0  0  0
    1.3129    1.0409    0.0000 O   0  0  0  0  0  0  0  0  0  0  0  0
   -0.1161   -1.4341    0.0000 O   0  0  0  0  0  0  0  0  0  0  0  0
   -1.5450   -1.4341    0.0000 O   0  0  0  0  0  0  0  0  0  0  0  0
    2.3395    1.4980    0.0000 O   0  0  0  0  0  0  0  0  0  0  0  0
    3.7372    1.2009    0.0000 O   0  0  0  0  0  0  0  0  0  0  0  0
    0.0000    0.0000    0.0000 H   0  0  0  0  0  0  0  0  0  0  0  0
    0.0000    0.0000    0.0000 H   0  0  0  0  0  0  0  0  0  0  0  0
    0.0000    0.0000    0.0000 H   0  0  0  0  0  0  0  0  0  0  0  0
    0.0000    0.0000    0.0000 H   0  0  0  0  0  0  0  0  0  0  0  0
    0.0000    0.0000    0.0000 H   0  0  0  0  0  0  0  0  0  0  0  0
    0.0000    0.0000    0.0000 H   0  0  0  0  0  0  0  0  0  0  0  0
    0.0000    0.0000    0.0000 H   0  0  0  0  0  0  0  0  0  0  0  0
    0.0000    0.0000    0.0000 H   0  0  0  0  0  0  0  0  0  0  0  0
    0.0000    0.0000    0.0000 H   0  0  0  0  0  0  0  0  0  0  0  0
    0.0000    0.0000    0.0000 H   0  0  0  0  0  0  0  0  0  0  0  0
    0.0000    0.0000    0.0000 H   0  0  0  0  0  0  0  0  0  0  0  0
    0.0000    0.0000    0.0000 H   0  0  0  0  0  0  0  0  0  0  0  0
    0.0000    0.0000    0.0000 H   0  0  0  0  0  0  0  0  0  0  0  0
    0.0000    0.0000    0.0000 H   0  0  0  0  0  0  0  0  0  0  0  0
    0.0000    0.0000    0.0000 H   0  0  0  0  0  0  0  0  0  0  0  0
    0.0000    0.0000    0.0000 H   0  0  0  0  0  0  0  0  0  0  0  0
    0.0000    0.0000    0.0000 H   0  0  0  0  0  0  0  0  0  0  0  0
    0.0000    0.0000    0.0000 H   0  0  0  0  0  0  0  0  0  0  0  0
    0.0000    0.0000    0.0000 H   0  0  0  0  0  0  0  0  0  0  0  0
    0.0000    0.0000    0.0000 H   0  0  0  0  0  0  0  0  0  0  0  0
    0.0000    0.0000    0.0000 H   0  0  0  0  0  0  0  0  0  0  0  0
    0.0000    0.0000    0.0000 H   0  0  0  0  0  0  0  0  0  0  0  0
    0.0000    0.0000    0.0000 H   0  0  0  0  0  0  0  0  0  0  0  0
    0.0000    0.0000    0.0000 H   0  0  0  0  0  0  0  0  0  0  0  0
  3  2  2  0
  4  2  1  0
  6  3  1  0
  7  4  2  0
  8  5  1  0
 10  9  1  0
 11  5  1  0
 12  1  1  6
 13  6  2  0
 13  7  1  0
 13  9  1  0
 14 10  1  1
 15  8  1  0
 16 12  1  0
 17 14  1  0
 15 18  1  6
 19 12  1  0
 14 19  1  0
 20 11  1  0
 20 15  1  0
 20 16  1  0
 21 16  2  0
 22 17  2  0
 23 17  1  0
 24 18  2  0
 25 18  1  0
  1 26  1  0
  1 27  1  0
  1 28  1  0
  2 29  1  0
  3 30  1  0
  4 31  1  0
  5 32  1  0
  5 33  1  0
  6 34  1  0
  7 35  1  0
  8 36  1  0
  8 37  1  0
  9 38  1  0
  9 39  1  0
 10 40  1  0
 10 41  1  0
 11 42  1  0
 11 43  1  0
 12 44  1  0
 14 45  1  0
 15 46  1  0
 19 47  1  0
 23 48  1  0
 25 49  1  0
M  END
>  <ALOGPS_LOGP>  (1) 
-0.09

>  <ALOGPS_LOGS>  (1) 
-2.60

>  <ALOGPS_SOLUBILITY>  (1) 
8.76e-01 g/l

>  <DATABASE_ID>  (1) 
DB09477

>  <DATABASE_NAME>  (1) 
drugbank

>  <DRUGBANK_ID>  (1) 
DB09477

>  <DRUG_GROUPS>  (1) 
approved

>  <EXACT_MASS>  (1) 
348.168521888

>  <FORMULA>  (1) 
C18H24N2O5

>  <GENERIC_NAME>  (1) 
Enalaprilat

>  <INCHI_IDENTIFIER>  (1) 
InChI=1S/C18H24N2O5/c1-12(16(21)20-11-5-8-15(20)18(24)25)19-14(17(22)23)10-9-13-6-3-2-4-7-13/h2-4,6-7,12,14-15,19H,5,8-11H2,1H3,(H,22,23)(H,24,25)/t12-,14-,15-/m0/s1

>  <INCHI_KEY>  (1) 
LZFZMUMEGBBDTC-QEJZJMRPSA-N

>  <JCHEM_ACCEPTOR_COUNT>  (1) 
6

>  <JCHEM_AVERAGE_POLARIZABILITY>  (1) 
35.823060663816875

>  <JCHEM_BIOAVAILABILITY>  (1) 
1

>  <JCHEM_DONOR_COUNT>  (1) 
3

>  <JCHEM_FORMAL_CHARGE>  (1) 
0

>  <JCHEM_GHOSE_FILTER>  (1) 
0

>  <JCHEM_IUPAC>  (1) 
(2S)-1-[(2S)-2-{[(1S)-1-carboxy-3-phenylpropyl]amino}propanoyl]pyrrolidine-2-carboxylic acid

>  <JCHEM_LOGP>  (1) 
-1.0502586259696762

>  <JCHEM_MDDR_LIKE_RULE>  (1) 
0

>  <JCHEM_NUMBER_OF_RINGS>  (1) 
2

>  <JCHEM_PHYSIOLOGICAL_CHARGE>  (1) 
-1

>  <JCHEM_PKA>  (1) 
3.9633227574021888

>  <JCHEM_PKA_STRONGEST_ACIDIC>  (1) 
3.1329349872838383

>  <JCHEM_PKA_STRONGEST_BASIC>  (1) 
7.833135249089682

>  <JCHEM_POLAR_SURFACE_AREA>  (1) 
106.94000000000001

>  <JCHEM_REFRACTIVITY>  (1) 
90.05689999999997

>  <JCHEM_ROTATABLE_BOND_COUNT>  (1) 
8

>  <JCHEM_RULE_OF_FIVE>  (1) 
1

>  <JCHEM_TRADITIONAL_IUPAC>  (1) 
enalaprilat

>  <JCHEM_VEBER_RULE>  (1) 
0

>  <MOLECULAR_WEIGHT>  (1) 
348.3936

>  <PRODUCTS>  (1) 
Enalaprilat; Enalaprilat Injection USP; Vasotec IV

>  <SALTS>  (1) 
Enalaprilat dihydrate

>  <SMILES>  (1) 
[H][C@@](C)(N[C@@]([H])(CCC1=CC=CC=C1)C(O)=O)C(=O)N1CCC[C@@]1([H])C(O)=O

>  <SYNONYMS>  (1) 
Enalaprilat anhydrous

$$$$
