
     RDKit          2D

 31 32  0  0  0  0  0  0  0  0999 V2000
    1.9109   -0.2767    0.0000 N   0  0  0  0  0  0  0  0  0  0  0  0
    1.4944   -0.9890    0.0000 C   0  0  0  0  0  0  0  0  0  0  0  0
    1.9029   -1.7058    0.0000 C   0  0  0  0  0  0  0  0  0  0  0  0
    2.7282   -1.7104    0.0000 O   0  0  0  0  0  0  0  0  0  0  0  0
    3.1446   -0.9981    0.0000 C   0  0  0  0  0  0  0  0  0  0  0  0
    2.7361   -0.2812    0.0000 C   0  0  0  0  0  0  0  0  0  0  0  0
    1.5024    0.4398    0.0000 N   0  0  0  0  0  0  0  0  0  0  0  0
    1.7592    1.2238    0.0000 N   0  0  0  0  0  0  0  0  0  0  0  0
    1.0900    1.7104    0.0000 O   0  0  0  0  0  0  0  0  0  0  0  0
    0.4210    1.2238    0.0000 C   0  0  0  0  0  0  0  0  0  0  0  0
    0.6776    0.4398    0.0000 C   0  0  0  0  0  0  0  0  0  0  0  0
   -0.2928    1.6395    0.0000 N   0  0  0  0  0  0  0  0  0  0  0  0
   -1.0052    1.2272    0.0000 C   0  0  0  0  0  0  0  0  0  0  0  0
   -1.7175    1.6395    0.0000 O   0  0  0  0  0  0  0  0  0  0  0  0
   -2.4299    1.2272    0.0000 C   0  0  0  0  0  0  0  0  0  0  0  0
   -1.0052    0.4023    0.0000 O   0  0  0  0  0  0  0  0  0  0  0  0
   -3.1446    1.6388    0.0000 C   0  0  0  0  0  0  0  0  0  0  0  0
    0.0000    0.0000    0.0000 H   0  0  0  0  0  0  0  0  0  0  0  0
    0.0000    0.0000    0.0000 H   0  0  0  0  0  0  0  0  0  0  0  0
    0.0000    0.0000    0.0000 H   0  0  0  0  0  0  0  0  0  0  0  0
    0.0000    0.0000    0.0000 H   0  0  0  0  0  0  0  0  0  0  0  0
    0.0000    0.0000    0.0000 H   0  0  0  0  0  0  0  0  0  0  0  0
    0.0000    0.0000    0.0000 H   0  0  0  0  0  0  0  0  0  0  0  0
    0.0000    0.0000    0.0000 H   0  0  0  0  0  0  0  0  0  0  0  0
    0.0000    0.0000    0.0000 H   0  0  0  0  0  0  0  0  0  0  0  0
    0.0000    0.0000    0.0000 H   0  0  0  0  0  0  0  0  0  0  0  0
    0.0000    0.0000    0.0000 H   0  0  0  0  0  0  0  0  0  0  0  0
    0.0000    0.0000    0.0000 H   0  0  0  0  0  0  0  0  0  0  0  0
    0.0000    0.0000    0.0000 H   0  0  0  0  0  0  0  0  0  0  0  0
    0.0000    0.0000    0.0000 H   0  0  0  0  0  0  0  0  0  0  0  0
    0.0000    0.0000    0.0000 H   0  0  0  0  0  0  0  0  0  0  0  0
  3  4  1  0
  4  5  1  0
  7  8  2  0
  8  9  1  0
  9 10  1  0
 10 11  2  0
 11  7  1  0
  5  6  1  0
 10 12  1  0
  6  1  1  0
 12 13  1  0
 13 14  1  0
  1  7  1  0
 14 15  1  0
  1  2  1  0
 13 16  2  0
  2  3  1  0
 15 17  1  0
  2 18  1  0
  2 19  1  0
  3 20  1  0
  3 21  1  0
  5 22  1  0
  5 23  1  0
  6 24  1  0
  6 25  1  0
 11 26  1  0
 15 27  1  0
 15 28  1  0
 17 29  1  0
 17 30  1  0
 17 31  1  0
M  CHG  2   7   1  12  -1
M  END
>  <ALOGPS_LOGP>  (1) 
-1.04

>  <ALOGPS_LOGS>  (1) 
-1.35

>  <ALOGPS_SOLUBILITY>  (1) 
1.33e+01 g/l

>  <DATABASE_ID>  (1) 
DB09282

>  <DATABASE_NAME>  (1) 
drugbank

>  <DRUGBANK_ID>  (1) 
DB09282

>  <DRUG_GROUPS>  (1) 
approved; investigational

>  <EXACT_MASS>  (1) 
242.101504947

>  <FORMULA>  (1) 
C9H14N4O4

>  <GENERIC_NAME>  (1) 
Molsidomine

>  <INCHI_IDENTIFIER>  (1) 
InChI=1S/C9H14N4O4/c1-2-16-9(14)10-8-7-13(11-17-8)12-3-5-15-6-4-12/h7H,2-6H2,1H3

>  <INCHI_KEY>  (1) 
XLFWDASMENKTKL-UHFFFAOYSA-N

>  <JCHEM_ACCEPTOR_COUNT>  (1) 
5

>  <JCHEM_ATOM_COUNT>  (1) 
31

>  <JCHEM_AVERAGE_POLARIZABILITY>  (1) 
23.73803531577071

>  <JCHEM_BIOAVAILABILITY>  (1) 
1

>  <JCHEM_DONOR_COUNT>  (1) 
0

>  <JCHEM_FORMAL_CHARGE>  (1) 
0

>  <JCHEM_GHOSE_FILTER>  (1) 
0

>  <JCHEM_IUPAC>  (1) 
5-[(ethoxycarbonyl)azanidyl]-3-(morpholin-4-yl)-1,2,3λ⁵-oxadiazol-3-ylium

>  <JCHEM_LOGP>  (1) 
-1.0168913401384128

>  <JCHEM_MDDR_LIKE_RULE>  (1) 
0

>  <JCHEM_NUMBER_OF_RINGS>  (1) 
2

>  <JCHEM_PHYSIOLOGICAL_CHARGE>  (1) 
1

>  <JCHEM_PKA>  (1) 
14.158387817685217

>  <JCHEM_PKA_STRONGEST_ACIDIC>  (1) 
7.991301077599376

>  <JCHEM_PKA_STRONGEST_BASIC>  (1) 
-3.155905039477173

>  <JCHEM_POLAR_SURFACE_AREA>  (1) 
77.91

>  <JCHEM_REFRACTIVITY>  (1) 
76.99079999999998

>  <JCHEM_ROTATABLE_BOND_COUNT>  (1) 
4

>  <JCHEM_RULE_OF_FIVE>  (1) 
1

>  <JCHEM_TRADITIONAL_IUPAC>  (1) 
5-[(ethoxycarbonyl)azanidyl]-3-(morpholin-4-yl)-1,2,3λ⁵-oxadiazol-3-ylium

>  <JCHEM_VEBER_RULE>  (1) 
0

>  <MOLECULAR_WEIGHT>  (1) 
242.235

>  <SMILES>  (1) 
CCOC(=O)[N-]C1=C[N+](=NO1)N1CCOCC1

$$$$
