
     RDKit          2D

 37 39  0  0  1  0  0  0  0  0999 V2000
    2.9397    6.7749    0.0000 C   0  0  0  0  0  0  0  0  0  0  0  0
    2.2253    6.3624    0.0000 C   0  0  0  0  0  0  0  0  0  0  0  0
    3.3522    1.1104    0.0000 C   0  0  0  0  0  0  0  0  0  0  0  0
    3.3522    1.9354    0.0000 C   0  0  0  0  0  0  0  0  0  0  0  0
    2.6378    0.6979    0.0000 C   0  0  0  0  0  0  0  0  0  0  0  0
    1.1387    2.1903    0.0000 C   0  0  0  0  0  0  0  0  0  0  0  0
    0.6537    1.5229    0.0000 C   0  0  0  0  0  0  0  0  0  0  0  0
    3.0503    3.8874    0.0000 C   0  0  0  0  0  0  0  0  0  0  0  0
    1.5108    4.2999    0.0000 C   0  0  0  0  0  0  0  0  0  0  0  0
    2.2253    3.8874    0.0000 C   0  0  0  0  0  0  0  0  0  0  0  0
    2.6378    2.3479    0.0000 C   0  0  0  0  0  0  0  0  0  0  0  0
    1.9233    1.9354    0.0000 C   0  0  0  0  0  0  0  0  0  0  0  0
    2.6378    3.1729    0.0000 C   0  0  0  0  0  0  0  0  0  0  0  0
    1.9233    1.1104    0.0000 C   0  0  0  0  0  0  0  0  0  0  0  0
    2.2253    5.5374    0.0000 C   0  0  0  0  0  0  0  0  0  0  0  0
    1.5108    5.1249    0.0000 N   0  0  0  0  0  0  0  0  0  0  0  0
    2.9397    5.1249    0.0000 O   0  0  0  0  0  0  0  0  0  0  0  0
    1.1387    0.8555    0.0000 O   0  0  0  0  0  0  0  0  0  0  0  0
    0.0000    0.0000    0.0000 H   0  0  0  0  0  0  0  0  0  0  0  0
    0.0000    0.0000    0.0000 H   0  0  0  0  0  0  0  0  0  0  0  0
    0.0000    0.0000    0.0000 H   0  0  0  0  0  0  0  0  0  0  0  0
    0.0000    0.0000    0.0000 H   0  0  0  0  0  0  0  0  0  0  0  0
    0.0000    0.0000    0.0000 H   0  0  0  0  0  0  0  0  0  0  0  0
    0.0000    0.0000    0.0000 H   0  0  0  0  0  0  0  0  0  0  0  0
    0.0000    0.0000    0.0000 H   0  0  0  0  0  0  0  0  0  0  0  0
    0.0000    0.0000    0.0000 H   0  0  0  0  0  0  0  0  0  0  0  0
    0.0000    0.0000    0.0000 H   0  0  0  0  0  0  0  0  0  0  0  0
    0.0000    0.0000    0.0000 H   0  0  0  0  0  0  0  0  0  0  0  0
    0.0000    0.0000    0.0000 H   0  0  0  0  0  0  0  0  0  0  0  0
    0.0000    0.0000    0.0000 H   0  0  0  0  0  0  0  0  0  0  0  0
    0.0000    0.0000    0.0000 H   0  0  0  0  0  0  0  0  0  0  0  0
    0.0000    0.0000    0.0000 H   0  0  0  0  0  0  0  0  0  0  0  0
    0.0000    0.0000    0.0000 H   0  0  0  0  0  0  0  0  0  0  0  0
    0.0000    0.0000    0.0000 H   0  0  0  0  0  0  0  0  0  0  0  0
    0.0000    0.0000    0.0000 H   0  0  0  0  0  0  0  0  0  0  0  0
    0.0000    0.0000    0.0000 H   0  0  0  0  0  0  0  0  0  0  0  0
    0.0000    0.0000    0.0000 H   0  0  0  0  0  0  0  0  0  0  0  0
  2  1  1  0
  4  3  2  0
  5  3  1  0
  7  6  1  0
 10  8  1  0
 10  9  1  6
 11  4  1  0
 12  6  1  0
 12 11  2  0
 13  8  1  0
 13 10  1  0
 13 11  1  1
 14  5  2  0
 14 12  1  0
 15  2  1  0
 16  9  1  0
 16 15  2  3
 17 15  1  0
 18  7  1  0
 18 14  1  0
  1 19  1  0
  1 20  1  0
  1 21  1  0
  2 22  1  0
  2 23  1  0
  3 24  1  0
  4 25  1  0
  5 26  1  0
  6 27  1  0
  6 28  1  0
  7 29  1  0
  7 30  1  0
  8 31  1  0
  8 32  1  0
  9 33  1  0
  9 34  1  0
 10 35  1  0
 13 36  1  0
 17 37  1  0
M  END
>  <ALOGPS_LOGP>  (1) 
3.35

>  <ALOGPS_LOGS>  (1) 
-4.06

>  <ALOGPS_SOLUBILITY>  (1) 
2.16e-02 g/l

>  <DATABASE_ID>  (1) 
DB09071

>  <DATABASE_NAME>  (1) 
drugbank

>  <DRUGBANK_ID>  (1) 
DB09071

>  <DRUG_GROUPS>  (1) 
approved

>  <EXACT_MASS>  (1) 
245.141578856

>  <FORMULA>  (1) 
C15H19NO2

>  <GENERIC_NAME>  (1) 
Tasimelteon

>  <INCHI_IDENTIFIER>  (1) 
InChI=1S/C15H19NO2/c1-2-15(17)16-9-10-8-13(10)11-4-3-5-14-12(11)6-7-18-14/h3-5,10,13H,2,6-9H2,1H3,(H,16,17)/t10-,13+/m0/s1

>  <INCHI_KEY>  (1) 
PTOIAAWZLUQTIO-GXFFZTMASA-N

>  <JCHEM_ACCEPTOR_COUNT>  (1) 
3

>  <JCHEM_ATOM_COUNT>  (1) 
37

>  <JCHEM_AVERAGE_POLARIZABILITY>  (1) 
27.905066846425886

>  <JCHEM_BIOAVAILABILITY>  (1) 
1

>  <JCHEM_DONOR_COUNT>  (1) 
1

>  <JCHEM_FORMAL_CHARGE>  (1) 
0

>  <JCHEM_GHOSE_FILTER>  (1) 
1

>  <JCHEM_IUPAC>  (1) 
N-{[(1R,2R)-2-(2,3-dihydro-1-benzofuran-4-yl)cyclopropyl]methyl}propanimidic acid

>  <JCHEM_LOGP>  (1) 
2.218463753635222

>  <JCHEM_MDDR_LIKE_RULE>  (1) 
0

>  <JCHEM_NUMBER_OF_RINGS>  (1) 
3

>  <JCHEM_PHYSIOLOGICAL_CHARGE>  (1) 
0

>  <JCHEM_PKA_STRONGEST_ACIDIC>  (1) 
4.413468791473088

>  <JCHEM_PKA_STRONGEST_BASIC>  (1) 
6.463809192802283

>  <JCHEM_POLAR_SURFACE_AREA>  (1) 
41.82000000000001

>  <JCHEM_REFRACTIVITY>  (1) 
70.8696

>  <JCHEM_ROTATABLE_BOND_COUNT>  (1) 
4

>  <JCHEM_RULE_OF_FIVE>  (1) 
1

>  <JCHEM_TRADITIONAL_IUPAC>  (1) 
N-{[(1R,2R)-2-(2,3-dihydro-1-benzofuran-4-yl)cyclopropyl]methyl}propanimidic acid

>  <JCHEM_VEBER_RULE>  (1) 
0

>  <MOLECULAR_WEIGHT>  (1) 
245.322

>  <PRODUCTS>  (1) 
Hetlioz

>  <SECONDARY_ACCESSION_NUMBERS>  (1) 
DB05359

>  <SMILES>  (1) 
[H][C@@]1(CN=C(O)CC)C[C@@]1([H])C1=C2CCOC2=CC=C1

>  <SYNONYMS>  (1) 
N-{[(1R,2R)-2-(2,3-dihydro-1-benzofuran-4-yl)cyclopropyl]methyl}propanamide; tasimelt√©on

$$$$
