
     RDKit          2D

 47 47  0  0  0  0  0  0  0  0999 V2000
   -4.2868    6.6000    0.0000 C   0  0  0  0  0  0  0  0  0  0  0  0
   -0.7145    7.8375    0.0000 C   0  0  0  0  0  0  0  0  0  0  0  0
    5.0013    8.6625    0.0000 C   0  0  0  0  0  0  0  0  0  0  0  0
   -3.5724    6.1875    0.0000 C   0  0  0  0  0  0  0  0  0  0  0  0
   -1.4289    7.4250    0.0000 C   0  0  0  0  0  0  0  0  0  0  0  0
   -2.8579    6.6000    0.0000 C   0  0  0  0  0  0  0  0  0  0  0  0
   -2.1434    6.1875    0.0000 C   0  0  0  0  0  0  0  0  0  0  0  0
    3.5724    6.1875    0.0000 C   0  0  0  0  0  0  0  0  0  0  0  0
    2.8579    7.4250    0.0000 C   0  0  0  0  0  0  0  0  0  0  0  0
    2.1434    6.1875    0.0000 C   0  0  0  0  0  0  0  0  0  0  0  0
    4.2868    6.6000    0.0000 C   0  0  0  0  0  0  0  0  0  0  0  0
    3.5724    7.8375    0.0000 C   0  0  0  0  0  0  0  0  0  0  0  0
    1.4289    6.6000    0.0000 C   0  0  0  0  0  0  0  0  0  0  0  0
   -0.7145    6.1875    0.0000 C   0  0  0  0  0  0  0  0  0  0  0  0
   -1.4289    6.6000    0.0000 C   0  0  0  0  0  0  0  0  0  0  0  0
    2.8579    6.6000    0.0000 C   0  0  0  0  0  0  0  0  0  0  0  0
    4.2868    7.4250    0.0000 C   0  0  0  0  0  0  0  0  0  0  0  0
    0.7145    6.1875    0.0000 C   0  0  0  0  0  0  0  0  0  0  0  0
    0.7145    5.3625    0.0000 O   0  0  0  0  0  0  0  0  0  0  0  0
    5.0013    7.8375    0.0000 O   0  0  0  0  0  0  0  0  0  0  0  0
    0.0000    6.6000    0.0000 O   0  0  0  0  0  0  0  0  0  0  0  0
    0.0000    0.0000    0.0000 H   0  0  0  0  0  0  0  0  0  0  0  0
    0.0000    0.0000    0.0000 H   0  0  0  0  0  0  0  0  0  0  0  0
    0.0000    0.0000    0.0000 H   0  0  0  0  0  0  0  0  0  0  0  0
    0.0000    0.0000    0.0000 H   0  0  0  0  0  0  0  0  0  0  0  0
    0.0000    0.0000    0.0000 H   0  0  0  0  0  0  0  0  0  0  0  0
    0.0000    0.0000    0.0000 H   0  0  0  0  0  0  0  0  0  0  0  0
    0.0000    0.0000    0.0000 H   0  0  0  0  0  0  0  0  0  0  0  0
    0.0000    0.0000    0.0000 H   0  0  0  0  0  0  0  0  0  0  0  0
    0.0000    0.0000    0.0000 H   0  0  0  0  0  0  0  0  0  0  0  0
    0.0000    0.0000    0.0000 H   0  0  0  0  0  0  0  0  0  0  0  0
    0.0000    0.0000    0.0000 H   0  0  0  0  0  0  0  0  0  0  0  0
    0.0000    0.0000    0.0000 H   0  0  0  0  0  0  0  0  0  0  0  0
    0.0000    0.0000    0.0000 H   0  0  0  0  0  0  0  0  0  0  0  0
    0.0000    0.0000    0.0000 H   0  0  0  0  0  0  0  0  0  0  0  0
    0.0000    0.0000    0.0000 H   0  0  0  0  0  0  0  0  0  0  0  0
    0.0000    0.0000    0.0000 H   0  0  0  0  0  0  0  0  0  0  0  0
    0.0000    0.0000    0.0000 H   0  0  0  0  0  0  0  0  0  0  0  0
    0.0000    0.0000    0.0000 H   0  0  0  0  0  0  0  0  0  0  0  0
    0.0000    0.0000    0.0000 H   0  0  0  0  0  0  0  0  0  0  0  0
    0.0000    0.0000    0.0000 H   0  0  0  0  0  0  0  0  0  0  0  0
    0.0000    0.0000    0.0000 H   0  0  0  0  0  0  0  0  0  0  0  0
    0.0000    0.0000    0.0000 H   0  0  0  0  0  0  0  0  0  0  0  0
    0.0000    0.0000    0.0000 H   0  0  0  0  0  0  0  0  0  0  0  0
    0.0000    0.0000    0.0000 H   0  0  0  0  0  0  0  0  0  0  0  0
    0.0000    0.0000    0.0000 H   0  0  0  0  0  0  0  0  0  0  0  0
    0.0000    0.0000    0.0000 H   0  0  0  0  0  0  0  0  0  0  0  0
  4  1  1  0
  5  2  1  0
  6  4  1  0
  7  6  1  0
 11  8  2  0
 12  9  1  0
 13 10  2  0
 15  5  1  0
 15  7  1  0
 15 14  1  0
 16  8  1  0
 16  9  2  0
 16 10  1  0
 17 11  1  0
 17 12  2  0
 18 13  1  0
 19 18  2  0
 20  3  1  0
 20 17  1  0
 21 14  1  0
 21 18  1  0
  1 22  1  0
  1 23  1  0
  1 24  1  0
  2 25  1  0
  2 26  1  0
  2 27  1  0
  3 28  1  0
  3 29  1  0
  3 30  1  0
  4 31  1  0
  4 32  1  0
  5 33  1  0
  5 34  1  0
  6 35  1  0
  6 36  1  0
  7 37  1  0
  7 38  1  0
  8 39  1  0
  9 40  1  0
 10 41  1  0
 11 42  1  0
 12 43  1  0
 13 44  1  0
 14 45  1  0
 14 46  1  0
 15 47  1  0
M  END
>  <ALOGPS_LOGP>  (1) 
5.62

>  <ALOGPS_LOGS>  (1) 
-5.81

>  <ALOGPS_SOLUBILITY>  (1) 
4.52e-04 g/l

>  <DATABASE_ID>  (1) 
DB09496

>  <DATABASE_NAME>  (1) 
drugbank

>  <DRUGBANK_ID>  (1) 
DB09496

>  <DRUG_GROUPS>  (1) 
approved

>  <EXACT_MASS>  (1) 
290.188194698

>  <FORMULA>  (1) 
C18H26O3

>  <GENERIC_NAME>  (1) 
Octinoxate

>  <INCHI_IDENTIFIER>  (1) 
InChI=1S/C18H26O3/c1-4-6-7-15(5-2)14-21-18(19)13-10-16-8-11-17(20-3)12-9-16/h8-13,15H,4-7,14H2,1-3H3/b13-10+

>  <INCHI_KEY>  (1) 
YBGZDTIWKVFICR-JLHYYAGUSA-N

>  <JCHEM_ACCEPTOR_COUNT>  (1) 
2

>  <JCHEM_ATOM_COUNT>  (1) 
47

>  <JCHEM_AVERAGE_POLARIZABILITY>  (1) 
34.83771507939504

>  <JCHEM_BIOAVAILABILITY>  (1) 
1

>  <JCHEM_DONOR_COUNT>  (1) 
0

>  <JCHEM_FORMAL_CHARGE>  (1) 
0

>  <JCHEM_GHOSE_FILTER>  (1) 
1

>  <JCHEM_IUPAC>  (1) 
2-ethylhexyl (2E)-3-(4-methoxyphenyl)prop-2-enoate

>  <JCHEM_LOGP>  (1) 
5.380220219666667

>  <JCHEM_MDDR_LIKE_RULE>  (1) 
0

>  <JCHEM_NUMBER_OF_RINGS>  (1) 
1

>  <JCHEM_PHYSIOLOGICAL_CHARGE>  (1) 
0

>  <JCHEM_PKA_STRONGEST_BASIC>  (1) 
-4.819479599848811

>  <JCHEM_POLAR_SURFACE_AREA>  (1) 
35.53

>  <JCHEM_REFRACTIVITY>  (1) 
86.4404

>  <JCHEM_ROTATABLE_BOND_COUNT>  (1) 
10

>  <JCHEM_RULE_OF_FIVE>  (1) 
0

>  <JCHEM_TRADITIONAL_IUPAC>  (1) 
parsol

>  <JCHEM_VEBER_RULE>  (1) 
1

>  <MOLECULAR_WEIGHT>  (1) 
290.3972

>  <PRODUCTS>  (1) 
01 Balancing Foundation SPF 15; 01 Moisture Foundation SPF 15; 02 Balancing Foundation SPF 15; 02 Moisture Foundation SPF 15; 03 Balancing Foundation SPF 15; 03 Moisture Foundation SPF 15; 04 Balancing Foundation SPF 15; 04 Moisture Foundation SPF 15; 05 Balancing Foundation SPF 15; 05 Moisture Foundation SPF 15; 06 Balancing Foundation SPF 15; 06 Moisture Foundation SPF 15; 07 Balancing Foundation SPF 15; 07 Moisture Foundation SPF 15; 08 Balancing Foundation SPF 15; 08 Moisture Foundation SPF 15; 09 Balancing Foundation SPF 15; 10 Balancing Foundation SPF 15; 125 Fl Moisture Whip Lipstick-stk Top 50mg/g; 15 SPF Sunscreen Uva/uvb Protection Oil-free Milky Spray; 15 SPF Sunscreen Uva/uvb Protection Vitalizing Age-defying Cream; 15hr Cover Lasting M201 Medium Beige Spf50; 15hr Cover Lasting Spf50; 15hr Cover Lasting V201 Apricot Beige Spf50; 2 In 1 Powder Make-UP SPF 15; 21STAY A Thera Sun Block; 24K Bio-Brightening Skin Tone Moisturizer SPF 30; 25 Creme 410; 275lw Long Wearing Lipstick 50mg/g; 28 Remedy Juvenile Sun BB Light Beige; 28 Remedy Juvenile Sun BB Natural Beige; 3 Concept Eyes Back To Baby; 30 Plus; 30 Plus Sunblock Spray; 30 SPF Oil Free; 30 SPF Sunscreen Uva/uvb Protection Delicate Skin Ultra Soothing Lotion; 30 SPF Sunscreen Uva/uvb Protection High Protection Age-defying Cream; 30 SPF Sunscreen Uva/uvb Protection Oil-free Milky Spray; 3CE Fitting Cushion Foundation 001; 3CE Fitting Cushion Foundation 002; 3CE Tinted moisture cushion CC 001; 3CE Tinted moisture cushion CC 002; 3Function CC Cream; 3Function Pearl BB Cream; 3LAB Hydra Day SPF 20 Broad Spectrum Water-Based Sunscreen; 4-IN-1 Liquid 14-hour Wear Foundation SPF 15; 45 Plus; 45 SPF Sunblock Lotion; 45 SPF Sunblock Spray; 4Life Enummi Protective Day Moisturizer SPF-15; 5281 Sunscreen; 5283 Sunscreen; 5298 Sunscreen; 5299 Sunscreen; 5407 Sunscreen; 6 Creme 410; 6 Creme 410 Teintee; 6 Lait Solaire; 675rl Revitalizing Lip Indulgence - Stk 7.5%; 8 SPF Sunscreen Lotion; A Cream SPF 30; A M Stimulus Complex SPF 25; A Retinol SPF 20; A-cream; A.H.C. COMPLETE CHOICE Color Change Cream; A.H.C. COMPLETE CHOICE Moisture Cream; A.H.c Natural Plus Sun; AAPE Continuous Renewal Sun; AGE Revision SPF50; AGE-X Platinum BB; AGELESS Total Rejuvenating Hand; AHC Intense Contour Balm Moisture; AHC Premium Intense Contour Balm; AMBI Fade Normal Skin; AMBI Fade Oily Skin; AMOREPACIFIC FUTURE RESPONSE Age Defense SPF30; ANEW Solar Advance Sunscreen Body Mist; ANNA LOTAN Premium B.B. UVA UVB SPF 36; ANNA LOTAN Rejuvenating Day Broad Spectrum SPF 34; ANTI-AGING CONCEALER FACE EYES SUNSCREEN SPF 20 Shade 10; ARTISTRY IDEAL RADIANCE UV Protect SPF 50 PLUS Broad Spectrum Sunscreen; ARTISTRY Time Defiance UV Defense SPF 50 Ultra Facial Sunscreen; ARTISTRY YOUTH XTEND Lifting Smoothing Foundation Broad Spectrum SPF 20 Sunscreen; ARTISTRY YOUTH XTEND Protecting Broad Spectrum SPF 15; ARTISTRY YOUTH XTEND Protecting Broad Spectrum SPF 15 Sunscreen; ATOMY BB Broad Spectrum; ATONO2 Baby Sun Cream; Abalone Crystaldouble EX Bb; Abalone Crystaldouble EX Cc; Abella Color Shade SPF 35 Dark; Abella Color Shade SPF 35 Ebony; Abella Color Shade SPF 35 Light; Abella ColorShade SPF 35 Medium; About Face Line Defiance Liquid Foundation SPF 15; Absolue Makeup; Absolute Finish Foundation SPF15; Abyssine Lotion + SPF 15; Acaifusion Lip Balm Broad Spectrum SPF 30 Supergoop; Acne Bb Broad Spectrum SPF 40; Active Breathable Sunblock SPF 30; Active Breathable Sunblock SPF 45; Active Radiance Day Moisture SPF 30; Active SPF 15 Dry Lot Sunscreen; Active SPF 15 Sunblock - Lot; Active SPF 30 Dry Lot Sunscreen; Active SPF 30 Sunblock - Lot; Active Sport Family Sunscreen SPF 35; Active Sunscreen Lotion SPF 50; Acwell Aqua Cap Sule Sun Control; Acwell Daily Sun Control; Adaptasun CRème De Soin Solaire Mer Et Tropiques Visage Fps/SPF 25; Adaptasun CRème De Soin Solaire Visage Fps/SPF 15; Adaptasun Sun Care Face SPF 15; Adaptasun Sun Care Lotion Body/ Lait De Soin Solaire Corps SPF/fps 15; Adaptasun Sun Care Lotion Sea and Tropics Body/ Lait De Soin Solaire Mer Et Tropiques Corps SPF/ Fps 20; Adaptasun Sun Care Sea and Tropics Face SPF 25; Adaptateur De Bronzage - Lot; Advanced Anti Aging Unscented with sunscreen SPF 20; Advanced Anti-Aging Eye Broad Spectrum SPF 37 Supergoop; Advanced Anti-Wrinkle Therapy Cicatricure; Advanced Cell Boosting EX Bb Spf30 Pa Plus Plus 01 Light Bb; Advanced Cell Boosting EX Bb Spf30 Pa Plus Plus 02 Natural; Advanced Dynamics Soothing day Moisture Broad Spectrum SPF 15 Jafra; Advanced Firming and Anti Wrinkle; Advanced Formula Lip Moisturizer Sunscreen SPF 25; Advanced Lightning; Advanced Marine Biology Day Cream; Advanced Marine Biology Day SPF 20 La Prairie Group AG; Advanced Marine Biology Day Sunscreen Broad Spectrum SPF 20; Advanced Protection SPF-15; Advanced Protection Sunscreen SPF-30; Advanced Revitalift Day; Advanced Revitalift Lotion; Advanced Revitalift Lotion SPF 15; Advanced Solutions Daily Moisturizer SPF 15; Advanced Time Zone Age Reversing Line Wrinkle Broad Spectrum SPF 15 Normal Combo Skin; Advanced Time Zone Age Reversing Line/wrinkle Oil Free Broad Spectrum SPF 15 Normal/combination Skin; Aegis Daily Facial SPF 25; Africa Bird Homme Bb Moisturizer; African Extracts Rooibos Moisturising Day Cream; African Formula Skin Lightening; Agatha Fitting Touch Make Up Set; Age 20s ESSENCE COVER PACT ORIGINAL PINK LATTE 13; Age 20s ESSENCE COVER PACT ORIGINAL PINK LATTE 21; Age 20s ESSENCE COVER PACT ORIGINAL PINK LATTE 23; Age 20s ESSENCE COVER PACT ORIGINAL WHITE LATTE 13; Age 20s ESSENCE COVER PACT ORIGINAL WHITE LATTE 21; Age 20s ESSENCE COVER PACT ORIGINAL WHITE LATTE 23; Age 20s ESSENCE COVER PACT WHITE DARK BE-35; Age 20s ESSENCE COVER PACT WHITE DEEP BE-25; Age Control Anti-Sagging and Ultra Hydrating Day SPF 15; Age Defense BB Cream SPF 30; Age Defense Bb Broad Spectrum SPF 30 All Skin Types; Age Defense Snail BB Cream; Age Defying Hydrating Sunscreen SPF 30; Age Defying Mineral Moisturizer; Age Defying Moisturizer SPF 18; Age Delay - Creme Prolongateur Jeunesse - SPF 15; Age Delay Emulsion Prolongateur Jeunesse - SPF 15; Age Management Skin Care System Sun Protection Cream SPF 15; Age Refine Day Cream CVS; Age Renewal Firming; Age Renewal Firming and Hydrating Moisturizer; Age Renewal Firming and Hydrating Moisturizer SPF 30; Age Renewal SPF 25; Age-defying + Moisturizing Neck & Chest Treatment SPF 15; Ageless Results Renewing Day Cream Creme De Jour Revigorante SPF/fps 15; Aha Facial Refining Complex SPF 8 -lot6.0%; Air Wear Foundation SPF 14; Alabaster Beige Expert Finish Makeup Broad Spectrum SPF 25 Merle Norman; Alabaster Perfecting Makeup SPF 25 Merle Norman; Alba Botanica Natural Very Emollient Sunscreen Kids SPF40; Alba Botanica Natural Very Emollient Sunscreen Sport Spray SPF40; Alba Botanica Very Emollient / Très émollient Lavender Fragrance Sunscreen Lotion/lotion écran Solaire à Parfum De Lavande SPF Fps 45; Alba Botanica Very Emollient / Très émollient Sport Sunscreen Lotion / Lotion écran Solaire Sport SPF Fps 45; Alba Botanica Very Emollient/très émollient Kids Sunscreen Lotion/lotion écran Solaire Pour Enfants SPF Fps 45; Alba Hawaiian Green Tea Sunblock SPF 45; Alba Hawaiian Sunscreen Green Tea SPF45; Alba Lip Care Sunblock SPF 25; Alba Sunblock Natural Kids SPF 45; Alba Sunblock Natural Lavender SPF 45; Alba Sunblock Natural Sport SPF 45; Alba VE Sunscreen Sport SPF45; Alba Very Emollient Sunscreen Lip Care SPF25; Algenist; All Aglow Perfect Cushion Foundation; All Around Safe Block Aqua Sun Gel; All Around Safe Block Essence Sun; All Day All Year; All Day Moisture; All Day Moisturizing; All Day Sunscreen with SPF 30; All Seasons Lip Balm; All Sport Non-freeze Face Protector SPF 30; All You Need + Broad Spectrum Oil Absorbing Lotion SPF 15; All You Need Continuous Action 24 Hour Moisture SPF 15 for Normal Skin; All-Day Liquid Foundation SPF 15 sunscreen Alabaster; All-Day Liquid Foundation SPF 15 sunscreen Almond Beige; All-Day Liquid Foundation SPF 15 sunscreen Amber; All-Day Liquid Foundation SPF 15 sunscreen Caramel; All-Day Liquid Foundation SPF 15 sunscreen Chestnut; All-Day Liquid Foundation SPF 15 sunscreen Cool Beige; All-Day Liquid Foundation SPF 15 sunscreen Cream; All-Day Liquid Foundation SPF 15 sunscreen Ebony; All-Day Liquid Foundation SPF 15 sunscreen Golden Beige; All-Day Liquid Foundation SPF 15 sunscreen Honey; All-Day Liquid Foundation SPF 15 sunscreen Ivory; All-Day Liquid Foundation SPF 15 sunscreen Nougat; All-Day Liquid Foundation SPF 15 sunscreen Olive; All-Day Liquid Foundation SPF 15 sunscreen Porcelain; All-Day Liquid Foundation SPF 15 sunscreen Rose Beige; All-Day Liquid Foundation SPF 15 sunscreen Soft Sand; All-Day Liquid Foundation SPF 15 sunscreen Topaz; All-Day Liquid Foundation SPF 15 sunscreen True Beige; All-Day Liquid Foundation SPF 15 sunscreen Warm Beige; All-Day Liquid Foundation SPF 15 sunscreen Warm Ivory; Almay Age Essentials Concealer SPF 20; Almay Age Essentials Makeup SPF 15; Almay Anti Aging Lip Care SPF 20; Almay Daily Moisturizer SPF 15 for Dry Skin; Almay Daily Moisturizer SPF 15 for Normal Combo Skin; Almay Daily Moisturizer SPF 15 for Oily Skin; Almay Health Glow 3-In-1 Makeup SPF 20; Almay Healthy Glow Makeup + Gradual Self Tan SPF 20; Almay Hydracolor Lipstick; Almay Ideal Lip Color SPF 17; Almay Kinetin Age Defying Daily Cream SPF 15; Almay Kinetin Age Defying Daily Lotion SPF 15; Almay Lip Vitality SPF 15; Almay Nearly Naked Liquid Makeup SPF 15; Almay Protective Lip Care SPF 25; Almay Protective Lip Care SPF 25 (shade-clear); Almay Smart Shade CC Cream; Almay Stay Smooth Anti-chap Lip Colour; Almay Time-off Age Smoothing Makeup SPF 12; Almay Time-off Lasting Moisture Lotion; Almay Tlc Truly Lasting Color Pressed Powder Poudre Pressee; Almay Wake-UP Call Energizing Makeup SPF 15; Almay Wake-UP Liquid Makeup; Almay Wake-Up Liquid Make-Up; Almond Aloe Facial Moisturizing Spf15; Almost Makeup Broad Spectrum SPF 15; Almost Powder Makeup SPF 15; Aloe Ice SPF 50; Aloe Kote SPF 25; Aloe Soothing Moisture Lotion SPF 15; Aloe Soothing Moisture SPF 15; Aloe Soothing Suncream; Aloe Sun Bb Spf20 Pa Plus Number1 Natural Skin; Aloe Sun Bb Spf20 Pa Plus Number1 Radiant Skin; Aloe Sun Bb Spf50 Plus Pa Plus Plus Plus; Aloe Sun Essence SPF 27 Pa Plus Plus; Aloe Sun Spf28 Pa Plus Plus; Aloe Up Dark Tanning Oil SPF 4; Aloe Up Dark Tanning Oil SPF 4 Continuous Sunscreen; Aloe Up Lil Kids SPF 50; Aloe Up Medicated Lip Balm SPF 30; Aloe Up Natural Lip Ice Sunscreen; Aloe Up Pro SPF 50 Advanced Formula Ultra Sport Sunscreen; Aloe Up Pro SPF 50 Lotion; Aloe Up Sunscreen SPF 50; Aloespa Body Mist; Aloespa Lip Balm; Aloespa Sport SPF 24; Alpha Hydrox Moisturizing Daily Lotion SPF 15; Alpha Hydrox Sheer Silk Moisturizer SPF 15; Alphaquin HP; Always Color Stay on Makeup Broad Spectrum SPF 15 Jafra; Alyria Skin Optimizing System-corrective Protection-SPF 30 Mist; Am/pm Anti-wrinkle Complex SPF 15; Amanda Beard's Lip Balmer SPF 15; Amarte Natural Finish Bb; Amarte Ultra Veil Ultra Light Sunscreen Fluid; Amazing Face Skin Balancing Flexible Coverage Foundation; Amazonian clay BB illuminating moisturizer Broad Spectrum SPF 15 Sunscreen; Ambi Even and Clear CC Sunscreen Broad Spectrum SPF30; Ambient Light Body Lotion SPF 50; Ambient Light Face Cream SPF 50; Ambient Lip Shield Stick SPF 45; Ambient Ultra Light Mist Spray SPF 30; American Crew All-IN-one Face Balm; Amish Origins SPF 15 Lip Balm; Amorepacific Age Correcting Foundation Cushion 102; Amorepacific Age Correcting Foundation Cushion 104; Amorepacific Age Correcting Foundation Cushion 106; Amorepacific Age Correcting Foundation Cushion 204; Amorepacific Age Correcting Foundation Cushion 208; Amorepacific Color Control Cushion Compact; Amorepacific Color Control Cushion Compact No.102; Amorepacific Color Control Cushion Compact No.104; Amorepacific Color Control Cushion Compact No.106; Amorepacific Color Control Cushion Compact No.204; Amorepacific Color Control Cushion Compact No.208; Amorepacific Future Response Age Defense Dual Eye With SPF 25 Sunscreen; Amorepacific Moisture Bound No. 102; Amorepacific Moisture Bound No. 104; Amorepacific Moisture Bound No. 106; Amorepacific Moisture Bound No. 204; Amorepacific Natural Protector; Amorepacific Resort Collection Sun Protection Cushion; Amorepacific Resort Collection Sun Protection Cushion Broad Spectrum SPF 30 Sunscreen; Amorepacific Time Response No. 102; Amorepacific Time Response No. 104; Amorepacific Time Response No. 106; Amorepacific Time Response No. 202; Amorepacific Time Response No. 204; Amorepacific Time Response No. 206; Amorepacific Time Response Skin Renewal No. 100; Amorepacific Time Response Skin Renewal No. 102; Amorepacific Time Response Skin Renewal No. 104; Amorepacific Time Response Skin Renewal No. 106; Amorepacific Time Response Skin Renewal No. 200; Amorepacific Time Response Skin Renewal No. 202; Amorepacific Time Response Skin Renewal No. 204; Amorepacific Time Response Skin Renewal No. 206; Anew Age-Transforming Concealer; Anew Age-Transforming Foundation; Anew Age-transforming Compact Makeup Maquillage Compact Transformation-age SPF-fps 15; Anew Age-transforming Cream Concealer; Anew Age-transforming Foundation Lotion; Anew Age-transforming Pressed Powder Poudre Pressee Transformation-age SPF.fps 15; Anew Alternative Intensive Age Treatment SPF 25 Day; Anew Clinical Absolute Even Spot Correcting Hand; Anew Clinical Skinvincible Multi-Shield; Anew Day Force Vertical Lifting Complex, SPF 15; Anew Instant Eye Smoother, SPF 15; Anew Men Daily Moisturizer; Anew Platinum Day; Anew Platinum Day Cream; Anew Rejuvenate 24 Hour Eye Moisturizer Hydratant Yeux 24 Heures SPF 25 Day; Anew Rejuvenate 24 hour Eye Moisturizer; Anew Rejuvenate Day Dial-A-glow Anti-aging Moisturizer SPF 15; Anew Rejuvenate Day Revitalizing; Anew Rejuvenate Day Revitalizing Cream / CRème Revitalisante SPF/fps 25 Uva/uvb; Anew Rejuvenate Day Revitalizing Cream/creme Revitalisante SPF/fps 25; Anew Reversalist Complete Renewal Day; Anew Reversalist Complete Renewal Day Cream; Anew Reversalist Complete Renewal Day Lotion; Anew Reversalist Day Renewal; Anew Reversalist Day Renewal Cream SPF Fps 25 Uva Uvb; Anew Skinvincible Day Lotion Broad Spectrum SPF 50 Sunscreen; Anew Sun Sunscreen Body Mist Lotion; Anew Ultimate 7S Day; Anew Ultimate Day 7s Cream; Anew Ultimate Day Multi-Performance; Anew Ultimate Day Multi-performance Cream; Anew Vitale Day; Anew Vitale Day Cream; Anew Vitale Day Lotion; Anew Youth-awakening Lipstick Rouge à Lèvres éclat Jeunesse SPF Fps 15; Angelica Protective SPF 15; Anna Lotan Triple Benefit Tinted Moisturizing Day Broad Spectrum SPF 30; Annabelle/bb/crème Cream/baume Beauté Multi-action Beauty Balm/SPF 15 Fps; Annabelle/skin True/long-lasting Makeup/fond De Teint Longue Tenue/SPF 15 Fps; Anti Aging SPF Moistruizer; Anti Aging Star; Anti Wrinkle; Anti-Age Global Complete Anti-Aging SPF20; Anti-Aging Complex Eye Treatment Merle Norman; Anti-Aging Daily Moisturizer Sunscreen Broad-Spectrum SPF 30; Anti-Aging Day Broad Spectrum SPF 30 La Prairie Group AG; Anti-Aging Day Protect SPF 22; Anti-Aging Emulsion SPF 30; Anti-Aging Eye Broad Spectrum SPF 15 la prairie Switzerland; Anti-Aging Foundation SPF 15 Shade 100; Anti-Aging Foundation SPF 15 Shade 200; Anti-Aging Foundation SPF 15 Shade 300; Anti-Aging Foundation SPF 15 Shade 400; Anti-Aging Foundation SPF 15 Shade 500; Anti-Aging Foundation SPF 15 Shade 600; Anti-Aging Foundation SPF 15 Shade 700; Anti-Aging Foundation SPF 15 Shade 800; Anti-Aging Hydra Tint SPF 20 Shade 10; Anti-Aging Tinted Moisturizer Broad Spectrum SPF 30; Anti-aging Complex Eye Treatment Broad Spectrum SPF 15; Anti-aging Concealer Face Eyes Sunscreen SPF 20 Shade 20; Anti-aging Concealer Face Eyes Sunscreen SPF 20 Shade 30; Anti-aging Concealer Face Eyes Sunscreen SPF 20 Shade 40; Anti-aging Cream SPF 15; Anti-aging Daily Moisturizer SPF 15; Anti-aging Day Sunscreen Broad Spectrum SPF 30; Anti-aging Eye Cream SPF 15; Anti-aging Eye Sunscreen Broad Spectrum SPF 15; Anti-aging Foundation An Emulsion SPF 15; Anti-aging Hydra Tint SPF 20 Shade 20; Anti-aging Hydra Tint SPF 20 Shade 30; Anti-aging Hydra Tint SPF 20 Shade 40; Anti-aging Moisturizer Broad Spectrum SPF 30 | Pa+++; Anti-aging Oil Free Sunscreen SPF 30 Lotion; Anti-aging Sunscreen Broad Spectrum SPF 30; Anti-aging Tinted Moisturizer; Anti-âge Global CRème Fondamentale Jour Fps 20; Antioxidant Daily Protectant SPF 30; Antioxidant Daily Protectant SPF 45; Antioxidant Daily Protectant SPF 50; Antioxidant Day SPF 15; Aqua Fusion SPF 15 Peau Normale A Mixte; Aqua Fusion SPF 15 Peau Normale A Seche; Aqua Fusion Teinte; Aqua SPF 50; Aquaderm-30; Aquaderm-30 Sunscreen Lotion; Aqualumiere SPF 15; Aquaphor Lip Protectant and Sunscreen; Aquaphor Lip Repair and Protect; Aquaradiance; Aquaradiance Comfort; Aquasource Levres Fps 8; Aquasource Levres SPF 8; Aquasource Uv Fps 15 Peau Normale Mixte; Aquasource Uv Fps 15 Peau Seche; Aquasport; Arbonne Abc Arbonne Baby Care Sunscreen SPF 30; Arbonne Abc Arbonne Baby Care Water-resistant Sunscreen SPF 30; Arbonne Baby Care Sunscreen SPF 30; Arbonne International Abc Arbonne Children's Care Sunscreen SPF 30+; Arbonne International Before Sun Water Resistant Sunscreen SPF 30; Arbonne International Lip Saver Sunscreen SPF 30; Arbonne International Liquid Sunshine Tan Enhancer Sunscreen SPF 15; Arbonne International Luminous Colour Wand SPF 8; Arbonne International Made In The Shade Self-tanner Sunscreen SPF 15; Arbonne International Save Face & Body Sunscreen SPF 15; Arbonne Lip Saver Sunscreen SPF 30; Arbonne Liquid Sunshine Tan Enhancer With SPF 15; Arbonne Made In The Shade Self-tanner With SPF 15; Arbonne Made In The Shade Self-tanner With SPF-15; Arbonne RE9 Advanced Extra Moisture Restorative Day SPF 20; Arbonne RE9 Advanced Restorative Day Broad Spectrum SPF 20; Arbonne Save Face & Body Sunscreen SPF 15; Arbonne Water-resistant Sunscreen SPF 30; Area Foundy Cover; Area Foundy Natural; Ariel Sun Smacker SPF 24 Strawberry Kiwi; Arllin Golden Combination Charisma CC; Artistry Balancing Foundation; Artistry Beauty Balm Perfecting Primer SPF 35 Broad Spectrum Sunscreen; Artistry Clarifying Moisturizer SPF 8 Lot; Artistry Essential Hand Treatment SPF 15; Artistry Essentials Balancing; Artistry Essentials Balancing Lotion; Artistry Essentials Hand Treatment; Artistry Essentials Hydrating Lotion; Artistry Essentials Hydrating SPF 15; Artistry Exact Fit Beauty Balm Perfecting Primer; Artistry Flawless Coverage Powder Foundation; Artistry Hydrating Foundation; Artistry Hydrating Foundation SPF 20 UBV/UVA; Artistry Hydro-V Sheer Weightless Foundation SPF 15 Broad Spectrum Sunscreen; Artistry Ideal Dual Powder Foundation Refill; Artistry Ideal Radiance Illuminating CC SPF 50 Broad Spectrum Med/Deep; Artistry Ideal Radiance Illuminating CC SPF 50 Broad Spectrum Sunscreen Deep; Artistry Ideal Radiance Illuminating CC SPF 50 Broad Spectrum Sunscreen Light/Medium; Artistry Ideal Radiance Illuminating CC SPF 50 Broad Spectrum Sunscreen Medium; Artistry Ideal Radiance Illuminating CC SPF50 Broad Spectrum Sunscreen - Light; Artistry Ideal Radiance Illuminating Cc Cream; Artistry Light Reflective Lotion SPF 15; Artistry Lip Colour Sheer SPF 15; Artistry Moisture Rich Moisturizer SPF 8 Crm; Artistry Pure White Moisturiser I; Artistry Time Defiance Day Protect CRème SPF 15; Artistry Time Defiance Day Protect Lotion SPF 15; Artistry Time Defiance Firming CRème Foundation SPF 15; Artistry Tinted Moisturiser SPF 15; Artistry Vi Moisture Rich Protective Moisturizer SPF 15; Artistry Vi Time Defiance Daytime Protective Creme; Artistry Youth Xtend Lifting Smoothing Foundation; Artistry Youth Xtend Protecting Cream; Artistry Youth Xtend Protecting Lotion; Artists Touch BB 01 Light; Artists Touch BB 02 Medium; Aruba Aloe Island Remedy Daily Ultra Aloe; Aruba Aloe Very Water Resistant Sunscreen; Aruba Aloe Very Water Resistant Sunscreen - For Faces SPF 30; Aruba Aloe Very Water Resistant Sunscreen For Kids SPF 30; Aruba Aloe Very Water Resistant Sunscreen SPF 15; Aruba Aloe Very Water Resistant Sunscreen SPF 50; Aruba Aloe Very Water Resistant Sunscreen SPF 8; Atomy Bb Broad Spectrum Spf30; Atomy Bb Cream SPF 30 Pa; Atomy Bb Spf30 Pa Plus Plus; Atomy Lip Glow; Atomy Sun Beige Spf50 Plus Pa Plus Plus Plus; Atomy Sun Cream SPF 50 Pa; Atomy Sun Spf50 Plus Pa Plus Plus Plus; Atomy Sunscreen Beige Broad Spectrum Spf50 Plus; Atomy Sunscreen Beige SPF50 PLUS; Atomy Sunscreen White Broad Spectrum Spf50 Plus; Atomy Sunscreen White SPF50 PLUS; Atopalm Bb Light SPF 20 Broad Spectrum Sunscreen; Atopalm Bb Medium SPF 20 Broad Spectrum Sunscreen; Aunt Bees Five Flavors Pineapple Coconut Lip Balm; Aunt Bees Five Flavors Sweet Almond Lip Balm; Aunt Bees Five Flavors Tangelo Lip Balm; Aunt Bees Five Flavors Wintermint Lip Balm; Aunt Bees SPF 35 Cherry Lip Balm; Australian Gold Baby SPF 50 Sunscreen; Australian Gold Kids SPF 50 Sunscreen; Autobronzant Lumiere - Crm Top 4%; Aveda Botanical Kinetics Daily Light Guard; Aveda Daily Light Guard SPF 15; Aveda Daily Light Guard SPF 15 - Cream; Aveda Lip Saver SPF 15; Aveda Lip Tint SPF 15; Aveda Tourmaline Charged Protecting Lotion SPF 15/oil Free; Aveeno Active Naturals Clear Complexion BB Broad Spectrum SPF30 - Medium; Aveeno Active Naturals Clear Complexion BB Sunscreen Broad Spectrum SPF30 Fair to Light; Aveeno Active Naturals Positively Ageless Correcting Tinted Moisturizer SPF30 Light to Medium; Aveeno Active Naturals Positively Ageless Correcting Tinted Moisturizer Sunscreen Broad Spectrum SPF30; Aveeno Active Naturals Positively Radiant Daily Moisturizer Broad Spectrum SPF15; Aveeno Active Naturals Positively Radiant Daily Moisturizer SPF 15; Aveeno Active Naturals Positively Radiant Daily Moisturizer Sunscreen Broad Spectrum SPF15; Aveeno Active Naturals Positively Radiant Tinted Moisturizer - Fair to Light Sunscreen Broad Spectrum SPF30; Aveeno Active Naturals Positively Radiant Tinted Moisturizer - Medium Sunscreen Broad Spectrum SPF30; Aveeno Active Naturals Ultra Calming Daily Moisturizer Sunscreen Broad Spectrum SPF15; Aveeno Active Naturals Ultra-Calming Daily Moisturizer Broad Spectrum SPF15; Aveeno Active Naturals Ultra-calming Daily Moisturizer SPF 30; Aveeno Baby Essential Daily Care Baby and Mommy Gift Set; Aveeno Baby Sunblock Lotion SPF 45; Aveeno Positively Radiant CC Broad Spectrum SPF30 - Fair to Light; Aveeno Positively Radiant CC Broad Spectrum SPF30 - Medium; Aveeno Positively Radiant Skin Moisturizer SPF 15; Aveeno Skin Brightening Daily Treatment; Aveeno Sunblock Spray SPF 30; Aveeno Ultra-Calming Daily Moisturizer SPF 30; Aveeno favorites from Positively radiant; Aveeno positively radiant targeted dark spot corrector Broad Spectrum SPF 15; Avobenzone, Octinoxate, Titanium Dioxide; Avon Age Block Environmental Protection Cream SPF 15; Avon Age Block SPF 15 - Crm Top; Avon Anew Advanced All-IN-one Max Self-adjusting Perfecting Cream Spf15; Avon Anew Advanced All-IN-one Max Self-adjusting Perfecting Lotion SPF 15; Avon Anew Advanced All-IN-one SPF 15; Avon Anew Advanced All-IN-one Self-adjusting Perfecting Lotion Spf15; Avon Anew All-IN-one Intensive Complex, SPF 15; Avon Anew All-IN-one Perfecting Complex SPF 15; Avon Anew All-IN-one Perfecting Lotion SPF 8; Avon Anew Force Extra Triple Lifting Day Cream SPF 15; Avon Anew Line Eliminator Neo-retinol Line Plumper SPF 15; Avon Anew Luminosity Brightening Complex SPF 15; Avon Anew Luminosity Ultra SPF 15; Avon Anew Perfect Eye Care Cream SPF 15; Avon Anew Perfecting Eye Cream SPF 15; Avon Anew Perfecting Moisturizer SPF 15; Avon Anew Positivity A.M. Fortifier Spf15; Avon Anew Positivity Empowering A.M. Fortifier SPF 15; Avon Anew Retroactive + Day Defense SPF 15; Avon Anew Revital - Air Complex SPF 15; Avon Anew Revital-air SPF 15; Avon Anew Ultimate Hand and Nail Cream SPF 15; Avon Auth.skin So Soft Moist.suncare-spf15; Avon Authentic Skin So Soft MoisT.S.C.-spf30; Avon Auto Focus Light Adjusting Foundation SPF 15; Avon Beautiful Morning Revitalizing Moisturizer Spf10; Avon Beyond Color Illuminating Radiance SPF 12; Avon Beyond Color Line Diminishing Concealer SPF 15; Avon Beyond Color Lip Recovery Cream SPF 15; Avon Beyond Color Plumping Lip Conditioner SPF 15; Avon Beyond Color Plumping Lipcolor SPF 15; Avon Brilliant Moisture Sheer Lipcolor SPF 15; Avon Broad Spectrum Sunblock Lotion SPF 15; Avon Bronzy Lip Balm SPF 15; Avon Care Moisture Replenish Daily Hydrating; Avon Care Moisture Replenish Daily Hydrating Cream; Avon Clearskin Clarifying Cover SPF 15; Avon Elements Moisture Boost Daily Moisture; Avon Elements Moisture Boost Daily Moisture Lotion; Avon Elements Moisture Boost SPF.fps 15 Daily Moisture Cream; Avon Elements Skin Revitalize Instant Radiance; Avon Elements Skin Revitalize Instant Radiance Lotion; Avon Elements Youth Restoring Multi-Purpose; Avon Elements Youth-Restoring Anti-Wrinkle Moisture; Avon Exfoliating After Shave Balm SPF 15; Avon Eye Block Environmental Protection Cream SPF 15; Avon Face-SPF 15 Foundation - Lot; Avon Hydralift Day Cream SPF 15; Avon Hydralift Day Lotion SPF 15; Avon Hydrofirming Bio6 Day Cream SPF 15; Avon Incredible Finish Foundation SPF 8; Avon Moisture Lift Protective Cream SPF 15; Avon Moisture Lift Protective Lotion SPF 15; Avon Moisture Shield Spf15 Crm; Avon Moisture Shield-tinted SPF 15 Crm; Avon Moisture Therapy Body Lotion SPF 8; Avon Moisture Therapy Intensive Moisturizing Lip Treatment SPF 15; Avon Moisture Therapy Lip Balm SPF 15 - Ont; Avon Moisture Therapy Moisturizing Lip Treatment SPF 15; Avon Moisture Therapy Soothing Lip Balm SPF 15; Avon Multi-boost Daily Vitamin Moisturizing Cream SPF 15; Avon Nova Perfecting Eye Cream Spf15; Avon Nude Matte Foundation Broad Spectrum SPF 20 Sunscreen; Avon Nutra Effects Active Seed Complex Ageless Day Cream Broad Spectrum SPF 20 Sunscreen; Avon Nutra Effects Active Seed Complex Balance Day Cream Broad Spectrum SPF 15 Sunscreen; Avon Nutra Effects Active Seed Complex Hydration Day Cream Broad Spectrum SPF 15 Sunscreen; Avon Nutra Effects Active Seed Complex Radiance Day Cream Broad Spectrum SPF 20 Sunscreen; Avon Oil-free Sunscreen Spray SPF 15 Liq; Avon Perfect Wear All-day Comfort Lipstick SPF 12; Avon Personal Match Cream-TO-powder Foundation SPF 10; Avon Personal Match Souffle Foundation Dewy Spf10; Avon Recharging Day Radiance Cream SPF 15; Avon Satin Moisture Lipstick Spf15; Avon Sheer Nourishment Tinted Moisturizer SPF 15; Avon Shine Divine Sheer Luminous Lipcolor SPF 15; Avon Skin So Soft Firm & Restore Neck & Chest Treatment Cream SPF 15 Sunscreen; Avon Skin So Soft Sunblock and Insect Repellent SPF 15; Avon Skin-SO-soft Body Lotion SPF 6; Avon Solutions Beautifully Protected Daily Uv Moisturizer SPF 30; Avon Solutions Simply Complete Everyday Lotion SPF 10; Avon Split Decision Lipstick SPF 15; Avon Sport Sunblock Lot Spf30; Avon Sun + Kids Technologie Derma Plus Technology Disappearing Potion Sunscreen Lotion; Avon Sun Age Defying SPF 30 Sunscreen Lotion; Avon Sun Baby SPF 40 Sunscreen Lotion; Avon Sun High Protection Kids Sunblock Lotion SPF 40; Avon Sun High Protection Sunblock Lotion SPF 40; Avon Sun Kids Disappearing Colour Stick SPF 25; Avon Sun Kids Disappearing Colour Sunblock Cream SPF 30; Avon Sun Kids SPF 30 Disappearing Color Sunscreen Spray; Avon Sun Kids SPF 40 Disappearing Color Sunscreen Lotion; Avon Sun Lip Balm SPF 15; Avon Sun SPF 15 Sunscreen Lotion; Avon Sun SPF 30 Sunscreen Lotion; Avon Sun SPF 40 Sunscreen Lotion; Avon Sun SPF 8 Sunscreen Lotion; Avon Sun Seekers Face Sunblock Crm Spf30; Avon Sun Seekers Moist. Sunb Lot Spf30; Avon Sun Seekers Moist. Sunblock Lot. Spf15; Avon Sun Seekers Protective Lip Balm SPF 15; Avon Sun Seekers Tanning Spritzer SPF 6 Liq; Avon Sun Self-tanning Face Cream SPF 6; Avon Sun Shades SPF 15 Lip Gloss; Avon Sun Sparkle SPF 30 Sunscreen Lotion for Kids; Avon Sun Sport Refresh Sunscreen; Avon Sun Sport SPF 15 Sunscreen Spray; Avon Sun Sport SPF 30 Sunscreen Spray; Avon Sun Sport SPF 8 Sunscreen Gel; Avon Sun Sunblock Lotion SPF 15; Avon Sun Sunblock Lotion SPF 30; Avon Sun Sunscreen; Avon Sunseekers Child.sunblock.lot SPF 15; Avon Sunseekers Child.sunblock.lot SPF 30; Avon Sunseekers Sunblock Lot Spf15; Avon Triple Finish Creme-TO-powder Foundation SPF 15; Avon True Color Flawless Cream To Powder Foundation Broad Spectrum SPF 15 Sunscreen; Avon True Color Ideal Nude Liquid Foundation Broad Spectrum SPF 20 Sunscreen; Avon Ultra Color Rich Renewable Lipstick SPF 15; Avon Ultra Moisture Rich Lipstick SPF 15; Avon Unlimited Moisture Lipcolor SPF 15; Awaken Skin Perfector BB Broad Spectrum SPF 15 Sunscreen Light Medium; Awaken Skin Perfector BB Broad Spectrum SPF 15 Sunscreen Medium Dark; Awaken by Quality Choice Absolute Daily Moisturizer Broad Spectrum SPF 15 Sunscreen; Axe Crew Cut Buzzed Look with Sunscreen SPF 15; B. Kamins, Chemist Bio-maple Day Cream; B. Kamins, Chemist Bio-maple Day Lotion; BANILA CO Prime Primer Fitting BB Light Beige; BANILA CO Prime Primer Fitting BB Natural Beige; BANILA CO Prime Primer Sun; BB Cream; BB Cream Skin perfector beauty balm SPF 18; BB fit Perfect 24 BB 01; BB fit Perfect 24 BB 02; BB fit Sheer BB; BELLA SCHNEIDER BEAUTY Glow And Go Tinted Moisturizing Sunscreen Broad Spectrum SPF 30; BENEFIT Air Patrol Broad Spectrum SPF20; BENEFIT HELLO FLAWLESS OXYGEN WOW Broad Spectrum SPF 25 BRIGHTENING MAKEUP - BELIEVE IN ME; BENEFIT HELLO FLAWLESS OXYGEN WOW Broad Spectrum SPF 25 BRIGHTENING MAKEUP - CHEERS TO ME; BENEFIT HELLO FLAWLESS OXYGEN WOW Broad Spectrum SPF 25 BRIGHTENING MAKEUP - GOTTA KNOW ME; BENEFIT HELLO FLAWLESS OXYGEN WOW Broad Spectrum SPF 25 BRIGHTENING MAKEUP - IM PLUSH AND PRECIOUS; BENEFIT HELLO FLAWLESS OXYGEN WOW Broad Spectrum SPF 25 BRIGHTENING MAKEUP - IM PURE 4 SURE; BENEFIT HELLO FLAWLESS OXYGEN WOW Broad Spectrum SPF 25 BRIGHTENING MAKEUP - IM SO MONEY; BENEFIT HELLO FLAWLESS OXYGEN WOW Broad Spectrum SPF 25 BRIGHTENING MAKEUP - Im All The Rage; BENEFIT HELLO FLAWLESS OXYGEN WOW Broad Spectrum SPF 25 BRIGHTENING MAKEUP - Im Hopelessly Hot; BENEFIT HELLO FLAWLESS OXYGEN WOW Broad Spectrum SPF 25 BRIGHTENING MAKEUP - Im So Glamber; BENEFIT HELLO FLAWLESS OXYGEN WOW Broad Spectrum SPF 25 BRIGHTENING MAKEUP - WARM ME UP; BENEFIT Triple Performing Facial Broad Spectrum SPF15; BODY DEFENCE SUNSCREEN Broad Spectrum SPF30; BODY TIME Anti-Aging Day Cream SPF 30; BOTANIC HEAL boH Derma Defense Wave Cushion 01 Natural Ivory; BOTANIC HEAL boH Derma Defense Wave Cushion 02 Natural Beige; BOTANIC HEAL boH Derma Water Ceramide Ampoule Cushion 01 Natural Ivory; BOTANIC HEAL boH Derma Water Ceramide Ampoule Cushion 02 Natural Beige; BOTANIC HEAL boH Dual Primer Sun No 1; BOTANIC HEAL boH Dual Primer Sun No 2; BOTANIC HEAL boH IDEAL FOR MEN ALL DEFENSE MULTI CUSHION; BOTANIC HEAL boH Smart Tone Up Sun; BR Waterfull BB BLEMISH BALM BRIGHT; BR Waterfull BB BLEMISH BALM NATURAL; BULLFROG DEET FREE Mosquito Coast Sunscreen with Insect Repellent SPF 30; Babies Sunblock Lotion SPF 45; Babies Ultra Block Lotion SPF 30; Babies' Total Sunblock Lotion SPF 45; Babies' Ultra Sunblock Lotion SPF 30; Baby Blanket BROAD SPECTRUM SPF 50; Baby Blanket Sunscreen Stick for Babies; Baby Lips; Baby Lotion SPF 50; Baby Tear Free Sans Larmes Sunscreen Spray Ecran Solaire En Vaporisateur Pour Bebes SPF/fps 50; Baby Tear Free Sans Larmes Sunscreen écran Solaire Pour Bébés SPF Fps 50; Baby Tear Free/sans Larmes Sunscreen Lotion/lotion écran Solaire Pour Bébés SPF Fps 60; Baby Tear Free/sans Larmes Sunscreen Spray/écran Solaire En Vaporisateur Pour Bebes SPF Fps 60; Baby Zone SPF 30 Sunscreen; Baby blanket BROAD SPECTRUM SPF 50; BabyGanics Sunscreen 30 SPF; BabyGanics Sunscreen 50 SPF; BabyGanics Sunscreen 50SPF; Babyganics SPF 50; Bain De Soleil 6-hour Waterp.sport Lot.SPF 8; Bain De Soleil 6-hour Waterp.sport Lot.spf15; Bain De Soleil 6-hour Waterproof Lot. SPF 15; Bain De Soleil 6-hour Waterproof Lotion Spf4; Bain De Soleil 6-hour Waterproof Lotion Spf8; Bain De Soleil All Day Lot. for Babies Spf30; Bain De Soleil All Day Lot. for Kids Spf30; Bain De Soleil All Day Lotion SPF 30; Bain De Soleil Fps 4; Bain De Soleil Gelee Orange SPF 4 - Gel; Bain De Soleil Golden Tanning Oil SPF 4 -gel; Bain De Soleil Longue Duree Pur Bebes Spf30; Bain De Soleil Lot Longue Duree Fps 15; Bain De Soleil Lot.longue Dur.pour Enf.fps30; Bain De Soleil Lotion Longue Duree Fps 30; Bain De Soleil Lotion Longue Duree Fps 8; Bain De Soleil Lotion Mega Tan Fps 4; Bain De Soleil Lotion Sport SPF 15; Bain De Soleil Lotion Sport SPF 8; Bain De Soleil Luminessence Spf4; Bain De Soleil Luminessence Spf8; Bain De Soleil Mega Tan Lotion SPF 30; Bain De Soleil Mega Tan Lotion SPF 4 - Lot; Bain De Soleil Oil Free Faces SPF 15; Bain De Soleil Orange Gelee SPF 8; Bain De Soleil Orange Gelee SPF-15; Bain De Soleil Orange Gelee Spf4; Bain De Soleil Sos SPF 15; Bain De Soleil Sos SPF 30; Bain De Soleil Tanning Mist SPF 8; Bain De Soleil Tanning Mist Spf4; Bain De Soleil Tropical Deluxe SPF-4; Bain de Soleil Mega Tan SPF 4; Bain de Soleil Orange Gelee SPF 4; Bain de Soleil Transpare SPF 10; Balance Dynamics Balancing SPF 15; Balanced Satin Finish Foundation SPF 15; Balancing Day Moisture Broad Spectrum SPF 15 Jafra; Balancing SPF 15 Jafra; Balea Bb Cream SPF 15; Bali Body BB Cream SPF 15; Bali Body SPF Cacao Tanning Oil; Bali Body SPF Tanning and Body Oil; Ballmania Lip Balm SPF 20; Balm SPF 15; Baléa Face Lip Balm SPF 30; Baléa Men Facial Lotion; Bambini Soul; Banana Boat; Banana Boat Action Sport Sunblock Spray Gel SPF 25; Banana Boat Active Kids Sunblock Lot SPF 30; Banana Boat Active Kids Sunblock Lot SPF 50; Banana Boat Active Kids Sunblock Lot Spf30; Banana Boat Active Sport Sunblock Spray SPF 25; Banana Boat Aloe Vera Lip Balm Spf30; Banana Boat Aloe Vera Lip Balm Sunbl. Spf21; Banana Boat Aloe Vera Lip Balm Sunblock SPF 30; Banana Boat Aquashield H20 Sport Sunblock Lotion SPF 30; Banana Boat Aquashield H2o Kids Sunblock SPF 30; Banana Boat Baby Block Sunblock Lotion SPF 50; Banana Boat Baby SPF 50; Banana Boat Baby Sin Lagrimas SPF 50 Pump; Banana Boat Baby Sunblock Lot SPF 50; Banana Boat Baby Sunblock Lotion SPF 29; Banana Boat Baby Sunblock Lotion SPF 50; Banana Boat Baby Sunscreen Spray SPF/fps 60; Banana Boat Baby Tear Free Lotion SPF 50; Banana Boat Baby Tear Free Sunscreen SPF 60; Banana Boat Bite Block Sunblock SPF 15; Banana Boat Bite Block Sunblock SPF 30; Banana Boat Cool Colorz Vanishing Sunblock Spray; Banana Boat Cool Colouring Vanishing Sunblock Spf30 Lotion; Banana Boat Cool Colourz Groovy Grape Foaming Sunblock SPF 30; Banana Boat Dark Tanning Oil SPF 4; Banana Boat Dark Tanning Oil SPF 8; Banana Boat Faces Plus SPF 23; Banana Boat Faces Plus SPF 31; Banana Boat Faces Plus Spf15; Banana Boat Faces Plus Sunblock SPF 23 - Crm; Banana Boat Funky Fruit - Lip Balm; Banana Boat Funky Fruit Lip Balm; Banana Boat Kids Quik Blok Spray SPF 25; Banana Boat Kids Sin Lagrimas Pump SPF 50; Banana Boat Kids Sunblock SPF 30; Banana Boat Kids Sunblock Spf50; Banana Boat Kids Sunblock Spray Lotion SPF 48; Banana Boat Kids Sunblock Stick SPF 30; Banana Boat Kids Sunscreen Spray SPF/fps 60; Banana Boat Kids Tear Free Continuous SPF 50; Banana Boat Kids Tear Free Sunscreen SPF 60; Banana Boat Oil Free SPF 30; Banana Boat Quick Dry Spray SPF 15; Banana Boat Quick Dry Spray SPF 30; Banana Boat Quik Blok Kids Spray SPF 25; Banana Boat Quik Blok Oil Free Spray SPF 15; Banana Boat Quik Blok Spray SPF 25; Banana Boat Sensitive Skin Sunblock Spf30; Banana Boat Sport Body and Scalp SPF 30; Banana Boat Sport Performance SPF 15; Banana Boat Sport Performance SPF 15 Canada; Banana Boat Sport Performance SPF 30 Canada; Banana Boat Sport SPF 30; Banana Boat Sport SPF 30 Lip Balm; Banana Boat Sport Sunblock Lotion SPF 30; Banana Boat Sport Sunblock Lotion SPF 50; Banana Boat Sport Sunblock Lotion Spf30; Banana Boat Sport Sunblock Lotion Spf50; Banana Boat Sport Sunblock SPF 15; Banana Boat Sport Sunblock SPF 30; Banana Boat Sunblock Lotion SPF 15; Banana Boat Sunblock SPF 15; Banana Boat Sunless Tanning Lotion SPF 8; Banana Boat Sunscreen Oil Spray Huile Ecran Solaire En Vaporisateur SPF Fps 15; Banana Boat Sunscreen Oil Spray Huile écran Solaire En Vaporisateur SPF Fps 4; Banana Boat Suntanicals Sunscreen Lotion SPF 15; Banana Boat Suntanicals Sunscreen Lotion SPF 30; Banana Boat Suntanicals Sunscreen Lotion SPF 8; Banana Boat Ultra 30 Super Sunblock; Banana Boat Ultra Defence SPF 30 for UK; Banana Boat Ultra Defense SPF 30 Canada; Banana Boat Ultra Defense SPF 30 for LATAM; Banana Boat Ultra Defense Sheer Protect FPS 50 LATAM; Banana Boat Ultra Mist Kids FPS 60 LATAM; Banana Boat Ultra Plus Sunblock Ecran Solaire Uva & Uvb SPF/fps 50; Banana Boat Ultra Plus Sunblock SPF 50; Banana Boat Ultra Plus Sunblock Spray Lotion SPF 48; Banana Boat Ultra Sunblock Lot Spf30; Banana Boat Ultra Sunblock SPF 30; Banana Boat Ultra defense SPF 50 Canada; Banana Boat UltraMist Baby Tear Free Continuous SPF 50; Banana Boat UltraMist Kids SPF 50 Factor de Proteccion Solar 50; Banana Boat UltraMist Kids Tear Free Lotion SPF 50; Banana Boat Ultramist Sport Performance SPF 50; Banana Boat Vitamin E Lip Balm Spf30; Banana Boat Vitamin E Lip Balm Sunblock SPF 30; Banana Boat Vitaskin Facial Care Sunscreen SPF 30 Lotion; Banana Boat Vitaskin Sunscreen SPF 30 Lotion; Banana Boat Vitaskin Sunscreen SPF 50 Lotion; Banana Bt Paba Free Uva and Uvb Spf25 Sunbl.; Banana Bt.faces Sens.skin Sunbl. SPF 23 Crm; Banana Bt.paba Free Uva and Uvb Prot.SPF 15; Banishing Cream Skin Tone Perfector Perfecteur De Teint SPF 15/fps15; Bare Expert Finish Makeup Broad Spectrum SPF 25 Merle Norman; Bare Perfecting Makeup Merle Norman; Bare Radiance Protective Lip Shine - Stk; Bare Skin Mineral Cover SPF 27; Bare Skin Mineral Cover Spf27; Bare Skin Nude Foundation Medium Beige Spf30; Bare Skin Nude Foundation V201 Apricot Beige Spf30; Bare Skin Nude Natural Beige Spf30; Barely Beige Moisturizing Makeup Broad Spectrum SPF 15 Jafra; Barely Beige Oil Controlling Makeup Broad Spectrum SPF 15 Jafra; Base De Pré-maquillage Correctrice/corrective Make-UP Base; Basic Teint - Eml; Baume Prodigieux Levres 01 Natural Crystal Nutri-protecting Lip Care SPF 15; Baume Prodigieux Levres 02 Legendaire Pink Nutri-protecting Lip Care SPF 15; Baume Prodigieux Levres 03 Shimmering Chocolate Nutri-protecting Lip Care SPF 15; Baume Prodigieux Levres 04 Red Charismatic Nutri-protecting Lip Care SPF 15; Baume Protecteur Fps 15 Avec Filtres Uva/uvb; Baume Protecteur Pour Les Levres No.46; Baume Protecteur Pour Les Levres No.47; Bb Concealer SPF-15; Bb Cream Broad Spectrum Spf30; Bb SPF-15; Bb10 Instant Skin Perfector Broad Spectrum SPF 35; Bbcream; Be Beautiful Luminous CC Cream; Be Beautiful Makeup Base; Be Beautiful Natural BB Cream; Be Fine Food Skin Care Daily Moisturizer With Rosemary,pomegranate and Rice With SPF 15; Beaute Initiale SPF 15; Beauticontrol Cell Block C; Beauticontrol Sunlogics O-F Tan.mist SPF 8; Beauticontrol Sunlogics Sun Shield Lot; Beauticontrol Sunlogics Uv Lip&eye Stk Spf15; Beauticontrol Sunlogics Water Resist. SPF 30; Beautipharm All Day Moisturizing Balm SPF 10; Beautipharm Body Moisturizer SPF 10; Beautipharm Eye Care Balm SPF 10; Beauty Balm Instant Solutions Broad Spectrum SPF 35; Beauty Booster Cream SPF 30; Beauty Booster Lip Gloss SPF 15; Beauty Hydrating; Beauté Initiale Eye; Beauté Initiale-CRème énergisante Multi-protection; Beauté Initiale-fluide énergisant Multi-protection; Beauté Initiale-fluide énergisant Multi-protection Hâle Progressif; Bee Pollen-jojoba High Moisture Cream; Beeswax SPF 15 Lip; Beevenom Bb Spf50plus Pa Plus Plus Plus; Beevenom Pact Spf50plus Pa Plus Plus Plus; Beevenom Sun Spf50plus Pa Plus Plus Plus; Bella Pelle SPF 30; Bellagio Childrens Sunscreen SPF 45; Bellagio Dark Tanning SPF 2; Bellagio Lip Moisturizer SPF 15; Bellagio Sunscreen For Face SPF 30; Bellagio Sunscreen SPF 15; Bellagio Sunscreen SPF 30; Bellagio Sunscreen SPF 45; Bellagio Sunscreen SPF 8; Belucie Luxury Essential Twin Pact NO21 SPF25 PA PLUS PLUS; Belucie Luxury Essential Twin Pact NO23 SPF25 PA PLUS PLUS; Benefiance Protective Hand Revitalizer; Benefiance Wrinkleresist24 Day Cream; Benefiance Wrinkleresist24 Day Emulsion; Benefit Triple Performing Facial Emulsion Broad Spectrum SPF 15; Berry Baby Lip Balm Peach Berry Spf12; Berry Baby Lip Balm Red Berry Spf12; Berry Baby Lip Balm Violet Berry Spf12; Best Choice absolute Daily Moisturizing Broad Spectrum SPF 15 Sunscreen; Best Face Forward Foundation Broad Spectrum SPF 25; Betula Alba Juice Bb SPF 30 Pa Plus Plus for Men; Beyond Color Lip Conditioner; Beyond Color Lip Conditioner SPF 15; Beyond Color Lipcolor; Beyond Color Lipstick SPF 15; Beyond Color Plumping Lip Conditioner; Beyond Color Plumping Lipcolor; Beyond Moisture Lipstick - Stk - 5.0%; Bienfait Multi-vital SPF 15; Bienfait Multi-vital Teinte; Bienfait Total SPF 15-creme; Big Easy; Big Kids SPF 30 Sunblock - Lot; Big V Baby Sunblock SPF 30 Lot; Big V Kids Sunblock Lotion SPF 30; Big V Sunblock Lotion 30 SPF; Big V Sunblock Lotion SPF 15; Bio Beauty Bio Defense Tinted Foundation SPF 18; Bio Degradable 15 SPF Sunblock; Bio Degradable 50 SPF Sunblock; Bio-alpine Jeunesse Refining Day Cream SPF 15; Bio-alpine Jeunesse Refining Day Fluid SPF 15; Bio-alpine Lift Anti-ageing Day Cream SPF 15; Bio-alpine Lift Anti-ageing Day Fluid SPF 15; Bio-maple Day Cream SPF 15; Bio-maple Day Lotion SPF 8; Bio-protection Jour SPF 20; Biocorneum Plus SPF 30 Advanced Scar Treatment; Bioelements FaceScreen; Bioelements Sun Diffusing Protector SPF 15; Bioelements, Inc. SPF 50 FaceScreen; Biofirm Lift Makeup; Biolagesun A D.I.T.S. S.C. S.B. Wp SPF 30; Biolagesun F.T.S. Sens. Sk. Sun Bl. Wp.spf30; Biolagesun S.S. Skin-caring S.S. Wp. SPF 15; Biolagesun T.T.T. Skin-caring S.S. Wp SPF 8; Biophora Day Protection Spf30 Uva/uvb Sunscreen; Biopur Fluide Mat Hydratant SPF 15; Biore Nourish Nourrit Moisture Lotion SPF 15; Biore Pore Perfect Pore Minimizing Lightweight Moisturizer SPF 15; Biore Skin Preservation Dual Fusion Moisturizer Plus SPF 30; Biosun Professional Sun Protection - Children SPF 30 - Crm; Biosun Professional Sun Protection - Faces SPF 25 - Crm; Biosun Professional Sun Protection - SPF 15 - Crm; Biosun Professional Sun Protection - SPF 30 - Crm; Biosun Professional Sun Protection - SPF 45 - Crm; Biosun Professional Sun Protection Oil Free Gel SPF 30; Biosun Professional Sun Protection Oil Free Spray SPF 25; Biotherm - Soin Des Levres SPF 8 Fle 113765; Biotherm Protecteur Auto-bronzant Fps 12; Biotherm-bronzant Securite SPF 15; Biotherm-gelee Bronzante Hydratante SPF 8; Birds Garden Lip Balm Cerulean Warbler SPF 30; Birds Garden Lip Balm Dark Eyed Junco SPF 30; Birds Garden Lip Balm Western Tanager - SPF 30; Bisque Always Color Stay-On Makeup SPF 10; Bisque Always Color Stay-on Broad Spectrum SPF 15 Jafra; Bite Beauty; Bite Beauty SPF 15 Sheer Balm; Black Opal Advanced Dual Phase Fade Creme; Black Rice Platinum Absolute Youth SPF 15; Black Stick; Blanc Perfect; Blemish Lab Bye Pore Bb Spf30 Pa Plus Plus; Bleve Bvibrant; Blissful Butters; Blistex Blissful Butters; Blistex Clear Advance Lip Protectant; Blistex Complete Moisture; Blistex Complete Moisture Lipbalm SPF 15; Blistex Daily Conditioning Treatment; Blistex Dct; Blistex Deep Renewal Broad Spectrum; Blistex Enhancement Series; Blistex Enhancement Series (Lip Vibrance, Deep Renewal and Ultra-Rich Hydration); Blistex Enhancement Series (Ultra-Rich Hydration and Lip Vibrance); Blistex European Formula; Blistex FIVE STAR; Blistex Five Star Lip Protection Broad Spectrum; Blistex Herbal Answer; Blistex Herbal Answer Lip Protectant SPF 15; Blistex Herbal Answer Lipbalm SPF 15; Blistex Lip Infusion Sheer Liquid Balm; Blistex Lip Massage; Blistex Lip Tone Balm; Blistex Lip Vibrance; Blistex Nurture and Nourish; Blistex Orange Mango Blast; Blistex Raspberry Lemonade Blast; Blistex Revive and Restore; Blistex Silk and Shine Lip Balm; Blistex Soft and Lush; Blistex Spa Effects SPF 15 Lip Protectant; Blistex Triple Essentials; Blistex Ultra Lip Balm; Blistex Ultra Rich Hydration; Block Up Oil Free 30 SPF; Block-UP Oil Free 15 SPF; Block-UP Oil Free 45 SPF; Blue Lizard Face; Blue Lizard Regular; Blue Lizard Sport; Blue Lizard Sunscreen Australian Formula; Blue Stick; Blurred Lines CC Creme Broad Spectrum SPF 20 Shade 01 Light; Blurred Lines CC Creme Broad Spectrum SPF 20 Shade 02 Medium; Blurred Lines CC Creme Broad Spectrum SPF 20 Shade 03 Medium/Dark; Bo Spf15; Bobbi Brown All Over Bronzing Gel SPF 15; Bobbi Brown Bb Broad Spectrum SPF 35; Bobbi Brown Beach Leave-IN Hair Conditioner SPF 15; Bobbi Brown Beach Sport Stick for Face SPF 20; Bobbi Brown Beach Sunscreen Body Broad Spectrum SPF 15; Bobbi Brown Beach Sunscreen Body Spray SPF 15; Bobbi Brown Beach Sunscreen Gel for Body SPF 30; Bobbi Brown Beach Sunscreen for Face SPF 25; Bobbi Brown Beauty Balm SPF 35; Bobbi Brown CC BROAD SPECTRUM SPF 25; Bobbi Brown Color Correct Cream SPF 35; Bobbi Brown Essentials Lip Balm SPF 15; Bobbi Brown Essentials SPF 15 Face Lotion; Bobbi Brown Essentials SPF 15 Lip Shine; Bobbi Brown Extra Moisturizing Balm SPF 25; Bobbi Brown Extra Repair Foundation Broad Spectrum SPF 25; Bobbi Brown Extra Repair Moisturizing Balm SPF 25; Bobbi Brown Extra SPF 25 Moisturizing Balm; Bobbi Brown Extra SPF 25 Tinted Moisturizing Balm; Bobbi Brown Extra Tinted Moisturizing Balm SPF 25; Bobbi Brown Illuminating Finish Powder Compact Foundation SPF 12; Bobbi Brown Intensive Skin Serum Foundation Broad Spectrum SPF 35; Bobbi Brown Intensive Skin Serum Foundation SPF 40 Lychee, Bamboo Grass & Cordyceps Extracts; Bobbi Brown Lip Balm Broad Spectrum SPF 15; Bobbi Brown Lip Balm SPF 15; Bobbi Brown Lip Tint SPF 15; Bobbi Brown Long-wear Even Finish Foundation SPF 15; Bobbi Brown Moisture Rich Foundation SPF 15; Bobbi Brown Natural Finish Long Lasting Foundation SPF 15; Bobbi Brown Nude Finish Tinted Moisturizer SPF 15; Bobbi Brown Oil Control Lotion SPF 15; Bobbi Brown Oil Free Even Finish Foundation SPF 15; Bobbi Brown Protective Face Lotion SPF 15; Bobbi Brown Protective Face SPF 15; Bobbi Brown SPF 15 Oil Free Tinted Moisturizer; Bobbi Brown Shimmering Lip Tints SPF 15; Bobbi Brown Skin Foundation Broad Spectrum SPF 15; Bobbi Brown Skin Foundation Cushion Compact SPF 35 Protect & Recharge; Bobbi Brown Skin Foundation Mineral Makeup SPF 15; Bobbi Brown Skin Foundation SPF 15; Bobbi Brown Skin Weightless Long-wear Foundation Spf15 Full Cover Oil-free Shine Control; Bobbie Brown Corrective Spot Treatment Broad Spectrum SPF 25; Body Armor - SPF 30 Sunscreen; Body Armor SPF 15 Sunscreen - Crm; Body Armor Sun 'n Bug Block; Body Essentials Hand and Body Moisturizing Formula SPF 8; Body Revive Moisturizing Sunscreen Lot; Body Series Hand & Body Lotion SPF 8 Moisturizing Formula; Body Series Moisture Stick + SPF 30; Body Time Sun Broad Spectrum SPF30 Anti-Aging Day; Body Zone SPF 15 Sport Screen; Body Zone SPF 15 Sunscreen; Body Zone SPF 30 Kids Screen; Body Zone SPF 30 Purple Block Screen; Body Zone SPF 30 Sport Screen; Body Zone SPF 30 Sunscreen; Body Zone SPF 40 Kids Sunscreen; Body Zone SPF 45 Suncreeen; Body Zone SPF 8 Sunscreen; Bodyglide Sun Formula SPF-25; Bodypruf All Season Sun Protection SPF 15; Bodypruf All Season Sun Protection SPF 4; Borghese Radiante Brightening Hand Creme; Boscia Daily Defense Sunscreen Broad Spectrum SPF 50 PA; Boscia Daily Hydration SPF 15 Broad Spectrum For Normal To Oily Skin; Boscia Restorative Day Moisture Broad Spectrum SPF 15 For Dry Skin; Boscia Self-Defense Vital Antioxidant Moisture Broad Spectrum SPF 30; Botanical Green Tea Pore Bb 01 Light Beige; Botanical Green Tea Pore Bb 02 Natural Beige; Botanical Moist Pact Spf30 Pa Plus Plus Plus 21; Botanical Moist Pact Spf30 Pa Plus Plus Plus 23; Botanical Pure Pact Spf25 Pa Plus Plus; Botanical Soothing SPF-30; Botanical Vanilla Foundation 21 Vanilla Nude; Botanical Vanilla Foundation 23 Vanilla Natural; Botanical Vanilla Makeup Base 01 Vanilla Green; Botanical Vanilla Makeup Base 02 Vanilla Pink; Botanical Vanilla Pact Spf30 Pa Plus Plus Plus 21 Vanilla Nude; Botanical Vanilla Pact Spf30 Pa Plus Plus Plus Vanilla Natural; Botanical Vanilla Spf25 Pa Plus 01; Botanical Vanilla Spf25 Pa Plus 02 Vanilla Pink; Botanics Complexion Refining Day Moisture Lotion Sunscreen SPF 12; Botanics Complexion Refining Day Moisture Sunscreen SPF 12; Botanics Daily Hand Therapy SPF 10; Botanics Daily Hand Therapy Sunscreen SPF 10; Botanics Day Moisture Sunscreen SPF 12; Botanics Face Defence Moisture Cream SPF 15; Botanics Face Firming Moisturizing Cream SPF 10; Botanics Face Lift Firming Cream Sunscreen SPF 10; Botanics Face Lift Firming Sunscreen SPF 10; Botanics Face Renewal Cream SPF 15; Botanics Face Renewal Cream Sunscreen SPF 15; Botanics Face Renewal Sunscreen SPF 15; Botanics Triple Action Day Moisture Cream Sunscreen SPF 15; Botanics Triple Action Day Moisture Sunscreen SPF 15; Bright Guard Water-Resistant SPF-30 Sunscreen; Bright Skin Moisturizer SPF 30; Bright future skin tint SPF 25 11 ivoire pur pure; Bright future skin tint SPF 25 12 ecru Ecru; Bright future skin tint SPF 25 20 creme; Bright future skin tint SPF 25 25 beige Beige; Bright future skin tint SPF 25 31 amande Almond; Bright future skin tint SPF 25 33 noix Walnut; Bright future skin tint SPF 25 35 bronze; Bright future skin tint SPF 25 44 Praline; Bright future skin tint SPF 25 46 noix de pecan Pecan; Bright future skin tint SPF 25 7 ivoire clair light; Brighten SPF 30; Brighten Up SPF 15; Brightening Dynamics Traveling Kit Jafra; Brightening Hand Broad Spectrum SPF 20 Jafra; Brightening Hand Care Broad Spectrum SPF 20 Sunscreen; Brightening Powder Compact Foundation SPF 20; Brightening Spot Treatment Corrector SPF 25; Brighter By Nature SPF 30; Brighter By Nature SPF 30 Correcting Makeup Broad Spectrum; Brighter By Nature SPF 30 Skin Tone Correcting Makeup; Brite Prep Fx; BritePrep FX; Broad Spectrum SPF 15 Sunscreen CVS; Broad Spectrum SPF 50 Sunscreen Bioelements; Broad Spectrum SPF Fps 50; Broad Spectrum Sunscreen Colourless SPF 40; Broad Spectrum Sunscreen Golden SPF 20; Broad Spectrum Sunscreen Natural SPF 20; Broad Spectrum Sunscreen SPF 25; Broccoli Sun Spf42 Pa Plus Plus Plus; Bronz Repair; Bronz Repair Creme De Soin Visage Pour Soleil Intense; Bronz Repair Creme De Soin Visage Pour Soleil Normal Ou Fort; Bronz Repair Extreme; Bronz Repair Sea and Tropics Face; Bronze Magic Gel Creme Nacre Autobronzant Express Fps 15; Brume Solaire SPF 5; Bubble Gum Sunscreen Lip Moisturizer; Build-A-tan Face SPF 15; Bull Frog Water Armor Super 40; BullFrog Land Sport SPF 50 Quik; BullFrog Super Block; BullFrog Water Armor Sport Super; Bullfrog Surfer; Burberry Cashmere Long-Lasting Flawless Soft-Matte Foundation Sunscreen Broad Spectrum SPF 15 Chestnut No.60; Burberry Cashmere Long-Lasting Flawless Soft-Matte Foundation Sunscreen Broad Spectrum SPF 15 Deep Brown No.66; Burberry Cashmere Long-Lasting Flawless Soft-Matte Foundation Sunscreen Broad Spectrum SPF 15 Mocha No.64; Burberry Cashmere Long-Lasting Flawless Soft-Matte Foundation Sunscreen Broad Spectrum SPF 20 Almond No.43; Burberry Cashmere Long-Lasting Flawless Soft-Matte Foundation Sunscreen Broad Spectrum SPF 20 Beige No.26; Burberry Cashmere Long-Lasting Flawless Soft-Matte Foundation Sunscreen Broad Spectrum SPF 20 Camel No.42; Burberry Cashmere Long-Lasting Flawless Soft-Matte Foundation Sunscreen Broad Spectrum SPF 20 Dark Sable No.36; Burberry Cashmere Long-Lasting Flawless Soft-Matte Foundation Sunscreen Broad Spectrum SPF 20 Honey No.32; Burberry Cashmere Long-Lasting Flawless Soft-Matte Foundation Sunscreen Broad Spectrum SPF 20 Ochre No.20; Burberry Cashmere Long-Lasting Flawless Soft-Matte Foundation Sunscreen Broad Spectrum SPF 20 Ochre Nude No.12; Burberry Cashmere Long-Lasting Flawless Soft-Matte Foundation Sunscreen Broad Spectrum SPF 20 Porcelain No.11; Burberry Cashmere Long-Lasting Flawless Soft-Matte Foundation Sunscreen Broad Spectrum SPF 20 Rosy Nude No.31; Burberry Cashmere Long-Lasting Flawless Soft-Matte Foundation Sunscreen Broad Spectrum SPF 20 Warm Honey No.38; Burberry Cashmere Long-Lasting Flawless Soft-Matte Foundation Sunscreen Broad Spectrum SPF 20 Warm Nude No.34; Burberry Cashmere Long-Lasting Flawless Soft-Matte Foundation Sunscreen SPF15 Chestnut; Burberry Cashmere Long-Lasting Flawless Soft-Matte Foundation Sunscreen SPF15 Deep Brown; Burberry Cashmere Long-Lasting Flawless Soft-Matte Foundation Sunscreen SPF15 Mocha; Burberry Cashmere Long-Lasting Flawless Soft-Matte Foundation Sunscreen SPF20 Almond; Burberry Cashmere Long-Lasting Flawless Soft-Matte Foundation Sunscreen SPF20 Beige; Burberry Cashmere Long-Lasting Flawless Soft-Matte Foundation Sunscreen SPF20 Camel; Burberry Cashmere Long-Lasting Flawless Soft-Matte Foundation Sunscreen SPF20 Dark Sable; Burberry Cashmere Long-Lasting Flawless Soft-Matte Foundation Sunscreen SPF20 Honey; Burberry Cashmere Long-Lasting Flawless Soft-Matte Foundation Sunscreen SPF20 Ochre No.20; Burberry Cashmere Long-Lasting Flawless Soft-Matte Foundation Sunscreen SPF20 Ochre Nude; Burberry Cashmere Long-Lasting Flawless Soft-Matte Foundation Sunscreen SPF20 Porcelain; Burberry Cashmere Long-Lasting Flawless Soft-Matte Foundation Sunscreen SPF20 Rosy Nude; Burberry Cashmere Long-Lasting Flawless Soft-Matte Foundation Sunscreen SPF20 Warm Honey; Burberry Cashmere Long-Lasting Flawless Soft-Matte Foundation Sunscreen SPF20 Warm Nude; Burberry Fresh Glow B.B. Luminous Skin Perfecting Beauty Balm Sunscreen Broad Spectrum SPF 20 Dark 03; Burberry Fresh Glow B.B. Luminous Skin Perfecting Beauty Balm Sunscreen Broad Spectrum SPF 20 Fair 01; Burberry Fresh Glow B.B. Luminous Skin Perfecting Beauty Balm Sunscreen Broad Spectrum SPF 20 Medium 02; Burberry Fresh Glow Foundation Luminous Fluid Almond No. 43; Burberry Fresh Glow Foundation Luminous Fluid Beige No. 26; Burberry Fresh Glow Foundation Luminous Fluid Camel No. 42; Burberry Fresh Glow Foundation Luminous Fluid Chestnut No. 60; Burberry Fresh Glow Foundation Luminous Fluid Dark Sable No. 36; Burberry Fresh Glow Foundation Luminous Fluid Deep Brown No. 66; Burberry Fresh Glow Foundation Luminous Fluid Honey No. 32; Burberry Fresh Glow Foundation Luminous Fluid Mocha No. 64; Burberry Fresh Glow Foundation Luminous Fluid Ochre No. 20; Burberry Fresh Glow Foundation Luminous Fluid Ochre Nude No. 12; Burberry Fresh Glow Foundation Luminous Fluid Porcelain No. 11; Burberry Fresh Glow Foundation Luminous Fluid Rosy Nude No. 31; Burberry Fresh Glow Foundation Luminous Fluid Warm Honey No. 38; Burberry Fresh Glow Foundation Luminous Fluid Warm Nude No. 34; Buxom Show Some Skin Weightless Foundation Broad Spectrum SPF 30 Almond The Nude; Buxom Show Some Skin Weightless Foundation Broad Spectrum SPF 30 Caramel Kisses; Buxom Show Some Skin Weightless Foundation Broad Spectrum SPF 30 Dim The Light; Buxom Show Some Skin Weightless Foundation Broad Spectrum SPF 30 Fair Game; Buxom Show Some Skin Weightless Foundation Broad Spectrum SPF 30 In The Buff; Buxom Show Some Skin Weightless Foundation Broad Spectrum SPF 30 In The Dark; Buxom Show Some Skin Weightless Foundation Broad Spectrum SPF 30 Meet Me Latte; Buxom Show Some Skin Weightless Foundation Broad Spectrum SPF 30 Silky Negli-Beige; Buxom Show Some Skin Weightless Foundation Broad Spectrum SPF 30 Sweet As Honey; Buxom Show Some Skin Weightless Foundation Broad Spectrum SPF 30 Tan-Talize Me; Buxom Show Some Skin Weightless Foundation Broad Spectrum SPF 30 Tickle The Ivory; Buxom Show Some Skin Weightless Foundation Broad Spectrum SPF 30 Youre A Natural; By Flower Bb 01 Light Beige; By Flower Bb 02 Natural Beige; By Flower Lip Care Spf15 Mint; By Flower Lip Care Spf15 Red; By Flower Lip Care Spf15 White; By Flower Lip Essence Spf15; By Nature Daily Face Sunscreen Broad Spectrum SPF 30; By Nature Hydrating Day SPF 15; By Pharmicell Lab Prestige Sun Block SPF40 PA PLUS PLUS PLUS; C Cream SPF 30; C-NO Wrinkle; C-thru-U Beautifying Sheer Tint Voile Teinte Beaute SPF/fps 15; C-thru-U Beautifying Sheer Tint Voile Teinte Beaute SPF/fps15; C.T. Foundation Flawless SPF 8; C.T. Foundation Satin SPF 15, Shade: #4.2; C.T. Foundation Satin SPF 15, Shade: 1.0; C.T. Foundation Satin SPF 15, Shades: #3.0, #3.2, #3.4; C.T. Foundation Satin SPF 15, Shades: #3.5, #4.5; C.T. Foundation Satin SPF 15, Shades: #4.0, #5.5; CAPTURE TOTALE COMPACT RADIANCE RESTORING LINE SMOOTHING MAKEUP SPF 20 010 Ivory; CAPTURE TOTALE COMPACT RADIANCE RESTORING LINE SMOOTHING MAKEUP SPF 20 020 Light Beige; CAPTURE TOTALE COMPACT RADIANCE RESTORING LINE SMOOTHING MAKEUP SPF 20 021 Linen; CAPTURE TOTALE COMPACT RADIANCE RESTORING LINE SMOOTHING MAKEUP SPF 20 023 Peach; CC CREME 02 Soin Perfecteur de peau Skin Perfecting; CC CREME Soin Perfecteur de peau Skin Perfecting; CC Cream Broad Spectrum SPF 30 Merle Norman; CC Cream Complexion Corrector Dark Broad Spectrum SPF 15 Jafra; CC Cream Complexion Corrector Light Medium Broad Spectrum SPF 15 Jafra; CC Cream Complexion Corrector Medium Broad Spectrum SPF 15 Jafra; CC Cream Complexion Corrector Medium Dark Broad Spectrum SPF 15 Jafra; CC Cream Light; CC Cream Medium; CCC Cream Deep; CCC Cream Light; CCC Cream Medium; CCC Cream Medium Deep; CCC Cream Medium Light; CD - Dior Multi-perfection Tinted Moisturizer Bronze Radiance 3 - SPF 20; CD - Dior Multi-perfection Tinted Moisturizer Golden Radiance 2 - SPF 20; CD - Dior Multi-perfection Tinted Moisturizer Natural Radiance 1 - SPF 20; CD CAPTURE TOTALE Multi-Perfection UVB Base Sunscreen SPF 50; CD CAPTURE TOTALE Triple Correcting Serum Foundation Wrinkles-Dark Spots-Radiance with sunscreen Broad Spectrum SPF 25 010; CD CAPTURE TOTALE Triple Correcting Serum Foundation Wrinkles-Dark Spots-Radiance with sunscreen Broad Spectrum SPF 25 020; CD CAPTURE TOTALE Triple Correcting Serum Foundation Wrinkles-Dark Spots-Radiance with sunscreen Broad Spectrum SPF 25 021; CD CAPTURE TOTALE Triple Correcting Serum Foundation Wrinkles-Dark Spots-Radiance with sunscreen Broad Spectrum SPF 25 022; CD CAPTURE TOTALE Triple Correcting Serum Foundation Wrinkles-Dark Spots-Radiance with sunscreen Broad Spectrum SPF 25 023; CD CAPTURE TOTALE Triple Correcting Serum Foundation Wrinkles-Dark Spots-Radiance with sunscreen Broad Spectrum SPF 25 030; CD CAPTURE TOTALE Triple Correcting Serum Foundation Wrinkles-Dark Spots-Radiance with sunscreen Broad Spectrum SPF 25 031; CD CAPTURE TOTALE Triple Correcting Serum Foundation Wrinkles-Dark Spots-Radiance with sunscreen Broad Spectrum SPF 25 032; CD CAPTURE TOTALE Triple Correcting Serum Foundation Wrinkles-Dark Spots-Radiance with sunscreen Broad Spectrum SPF 25 040; CD CAPTURE TOTALE Triple Correcting Serum Foundation Wrinkles-Dark Spots-Radiance with sunscreen Broad Spectrum SPF 25 050; CD Capture Totale Multi-perfection Makeup Base Sunscreen Broad Spectrum SPF 25; CD Creme De Rose Plumping Lip Balm; CD DIOR PRESTIGE White Collection Satin Brightening Eye Cream Sunscreen SPF 15; CD DIORSKIN CITY DEFENSE Toxin Shield Pollution UV Advanced Protection with sunscreen Broad Spectrum SPF50; CD DIORSKIN NUDE SKIN-GLOWING MAKEUP SUNSCREEN BROAD SPECTRUM SPF 15 010 Ivory; CD DIORSKIN NUDE SKIN-GLOWING MAKEUP SUNSCREEN BROAD SPECTRUM SPF 15 011 Cream; CD DIORSKIN NUDE SKIN-GLOWING MAKEUP SUNSCREEN BROAD SPECTRUM SPF 15 020 Light Beige; CD DIORSKIN NUDE SKIN-GLOWING MAKEUP SUNSCREEN BROAD SPECTRUM SPF 15 021 Linen; CD DIORSKIN NUDE SKIN-GLOWING MAKEUP SUNSCREEN BROAD SPECTRUM SPF 15 022 Cameo; CD DIORSKIN NUDE SKIN-GLOWING MAKEUP SUNSCREEN BROAD SPECTRUM SPF 15 023 Peach; CD DIORSKIN NUDE SKIN-GLOWING MAKEUP SUNSCREEN BROAD SPECTRUM SPF 15 030 Medium Beige; CD DIORSKIN NUDE SKIN-GLOWING MAKEUP SUNSCREEN BROAD SPECTRUM SPF 15 031 Sand; CD DIORSKIN NUDE SKIN-GLOWING MAKEUP SUNSCREEN BROAD SPECTRUM SPF 15 033 Apricot Beige; CD DIORSKIN NUDE SKIN-GLOWING MAKEUP SUNSCREEN BROAD SPECTRUM SPF 15 040 Honey Beige; CD DIORSKIN NUDE SKIN-GLOWING MAKEUP SUNSCREEN BROAD SPECTRUM SPF 15 041 Ochre; CD DIORSKIN NUDE SKIN-GLOWING MAKEUP SUNSCREEN BROAD SPECTRUM SPF 15 050 Dark Beige; CD DIORSKIN NUDE SKIN-GLOWING MAKEUP SUNSCREEN BROAD SPECTRUM SPF 15 060 Mocha; CD DIORSKIN NUDE SKIN-GLOWING MAKEUP SUNSCREEN BROAD SPECTRUM SPF 15 063 Amber; CD DIORSKIN NUDE SKIN-GLOWING MAKEUP SUNSCREEN BROAD SPECTRUM SPF 15 070 Dark Brown; CD DIORSKIN STAR Studio Makeup Spectacular Brightening with sunscreen Broad Spectrum SPF30 010; CD DIORSKIN STAR Studio Makeup Spectacular Brightening with sunscreen Broad Spectrum SPF30 020; CD DIORSKIN STAR Studio Makeup Spectacular Brightening with sunscreen Broad Spectrum SPF30 021; CD DIORSKIN STAR Studio Makeup Spectacular Brightening with sunscreen Broad Spectrum SPF30 022; CD DIORSKIN STAR Studio Makeup Spectacular Brightening with sunscreen Broad Spectrum SPF30 023; CD DIORSKIN STAR Studio Makeup Spectacular Brightening with sunscreen Broad Spectrum SPF30 030; CD DIORSKIN STAR Studio Makeup Spectacular Brightening with sunscreen Broad Spectrum SPF30 031; CD DIORSKIN STAR Studio Makeup Spectacular Brightening with sunscreen Broad Spectrum SPF30 032; CD DIORSKIN STAR Studio Makeup Spectacular Brightening with sunscreen Broad Spectrum SPF30 033; CD DIORSKIN STAR Studio Makeup Spectacular Brightening with sunscreen Broad Spectrum SPF30 040; CD DIORSKIN STAR Studio Makeup Spectacular Brightening with sunscreen Broad Spectrum SPF30 050; CD DIORSKIN STAR Studio Makeup Spectacular Brightening with sunscreen Broad Spectrum SPF30 060; CD DIORSKIN STAR Studio Makeup Spectacular Brightening with sunscreen Broad Spectrum SPF30 070; CD DIORSKIN STAR Studio Makeup Spectacular Brightening with sunscreen Broad Spectrum SPF30 080; CD DIORSNOW Bloom Perfect Brightening Perfect Skin Creator With Sunscreen Broad Spectrum SPF35; CD DIORSNOW UV SHIELD Brightening Illuminating UV Protection With Sunscreen TRANSLUCENT BROAD SPECTRUM SPF 50; CD DIORSNOW White Reveal Fresh Transparency Liquid Foundation with Sunscreen Broad Spectrum SPF 30 010; CD DIORSNOW White Reveal Fresh Transparency Liquid Foundation with Sunscreen Broad Spectrum SPF 30 020; CD DIORSNOW White Reveal Fresh Transparency Liquid Foundation with Sunscreen Broad Spectrum SPF 30 021; CD Dior Prestige White Collection Satin Brightening UV Base SPF 50; CD Dior Prestige White Collection Satin Brightening Uvb Base With Sunscreen SPF 50; CD DiorSkin Forever Compact Flawless Perfection Fusion Wear Makeup SPF 25 - 010; CD DiorSkin Forever Compact Flawless Perfection Fusion Wear Makeup SPF 25 - 011; CD DiorSkin Forever Compact Flawless Perfection Fusion Wear Makeup SPF 25 - 020; CD DiorSkin Forever Compact Flawless Perfection Fusion Wear Makeup SPF 25 - 021; CD DiorSkin Forever Compact Flawless Perfection Fusion Wear Makeup SPF 25 - 023; CD DiorSkin Forever Compact Flawless Perfection Fusion Wear Makeup SPF 25 - 030; CD DiorSkin Forever Compact Flawless Perfection Fusion Wear Makeup SPF 25 - 032; CD DiorSkin Forever Compact Flawless Perfection Fusion Wear Makeup SPF 25 - 040; CD DiorSkin Forever Compact Flawless Perfection Fusion Wear Makeup SPF 25 - 050; CD DiorSkin Forever Flawless Perfection Fusion Wear Makeup SPF 25 - 010; CD DiorSkin Forever Flawless Perfection Fusion Wear Makeup SPF 25 - 011; CD DiorSkin Forever Flawless Perfection Fusion Wear Makeup SPF 25 - 020; CD DiorSkin Forever Flawless Perfection Fusion Wear Makeup SPF 25 - 021; CD DiorSkin Forever Flawless Perfection Fusion Wear Makeup SPF 25 - 022; CD DiorSkin Forever Flawless Perfection Fusion Wear Makeup SPF 25 - 023; CD DiorSkin Forever Flawless Perfection Fusion Wear Makeup SPF 25 - 030; CD DiorSkin Forever Flawless Perfection Fusion Wear Makeup SPF 25 - 032; CD DiorSkin Forever Flawless Perfection Fusion Wear Makeup SPF 25 - 033; CD DiorSkin Forever Flawless Perfection Fusion Wear Makeup SPF 25 - 040; CD DiorSkin Forever Flawless Perfection Fusion Wear Makeup SPF 25 - 050; CD DiorSkin Radiant Base Skin-Refining Pro Lighting - 001; CD DiorSkin Radiant Base Skin-Refining Pro Lighting - 002; CD DiorSnow UV Shield Transluscent - SPF50; CD HydraLife BB Creme Enhancing Sunscreen Moisturizer For Immediate Beauty Golden Peach Broad Spectrum SPF 30; CD HydraLife BB Creme Enhancing Sunscreen Moisturizer For Immediate Beauty Luminous Beige Broad Spectrum SPF 30; CD HydraLife BB Creme Enhancing Sunscreen Moisturizer For Immediate Beauty Sunny Amber Broad Spectrum SPF 30; CHANTECAILLE Ultra Sun Protection Sunscreen Broad Spectrum SPF 45; CHANTECAILLE Ultra Sun Protection Sunscreen Broad Spectrum SPF 50; CLARINS Bright Plus HP SPF 20 Brightening Hydrating Day; CLARINS Broad Spectrum SPF 15 Sunscreen Care For Outdoor Sports; CLE DE PEAU BEAUTE PW FOUNDATION s B10; CLE DE PEAU BEAUTE PW FOUNDATION s B20; CLE DE PEAU BEAUTE PW FOUNDATION s B30; CLE DE PEAU BEAUTE PW FOUNDATION s BF20; CLE DE PEAU BEAUTE PW FOUNDATION s I10; CLE DE PEAU BEAUTE PW FOUNDATION s O10; CLE DE PEAU BEAUTE PW FOUNDATION s O20; CLE DE PEAU BEAUTE PW FOUNDATION s O30; CLE DE PEAU BEAUTE SYNACTIF DAYTIME MOISTURIZER n; CLEMATIS FLUFFY MATTE CUSHION 25 Soft Beige; CLEMATIS FLUFFY MATTE CUSHION 27 Beige; CLEMATIS Fluffy Matte Cushion 21 Light Beige; CLEMATIS Fluffy Matte Cushion 23 Natural Beige; CLEMATIS Morning Dew CC; CLEMATIS Morning dew BB 21 Light Beige; CLEMATIS Morning dew BB 23 Natural Beige; CRC Sunscreen Towel CRC; CRãme De Jour; CRème Auto-bronzante Bronze Dore SPF 15; CRème Compacte Solaire Teintée Haute Protection SPF 15; CRème De Soin Solaire Mer Et Tropiques Visage; CRème Montagne Et Grand Froid; CRème Protectrice SPF 20 Protective Cream SPF 20; CRème Solaire Bronzage Sécurité Spécial Visage SPF 15; CRème Solaire Fps 30; CRème Solaire Protection Modérée Visage; CRème Solaire Protection élevée Visage; CRème Solaire Régions Sensibles Fps 30; CRème Solaire Très Haute Protection Spécial Visage SPF 30; CRème Solaire écran Spécial Visage SPF 30; CVS Advanced Deep Set Wrinkle Therapy w/SPF15; CVS Health AM Moisturizing Facial; CVS Health Baby SPF 50 Sun; CVS Health Cherry SPF 15 Lip Balm; CVS Health Lip Moisture Cherry; CVS Health Lip Moisture Mint; CVS Health Lip Moisture Vanilla; CVS Health Lip Repair; CVS Health Medicated Lip Care; CVS Health Moisture SPF 15 Lip Balm; CVS Health Original SPF 15 Lip Balm; CVS Health SPF 100 Clear; CVS Health SPF 30 Oil Free Sun; CVS Health SPF 30 Ultra Sheer; CVS Health SPF 50 Sun; CVS Health Sport SPF 100 Plus Clear; CVS Pharmacy SPF 15; CVS Pharmacy Sunscreen SPF 45; CVS Revitalift Complete with SPF-15; CY BB Facial Hidratante con Color FPS 25 Multibeneficios; CY BETTER LIPS BALM Humectante para Labios con color FPS 18 (BLUSH CURE) - PINK; CY BETTER LIPS BALM Humectante para Labios con color FPS 18 (CHOCO THERAPY) - BROWN; CY BETTER LIPS BALM Humectante para Labios con color FPS 18 (DR. ROSE) - PINK; CY BETTER LIPS BALM Humectante para Labios con color FPS 18 (FLASHY KARMIN) - RED; CY BETTER LIPS BALM Humectante para Labios con color FPS 18 (FUXIA DEFENSE) - MAGENTA; CY BETTER LIPS BALM Humectante para Labios con color FPS 18 (GET WELL PEACH) - PINK; CY BETTER LIPS BALM Humectante para Labios con color FPS 18 (GRAPE CARE) - RED; CY BETTER LIPS BALM Humectante para Labios con color FPS 18 (INTENSIVE RED) - RED; CY BETTER LIPS BALM Humectante para Labios con color FPS 18 (LILAC ZIMMER) - LILAC; CY BETTER LIPS BALM Humectante para Labios con color FPS 18 (PINK STAR) - PINK; CY BETTER LIPS BALM Humectante para Labios con color FPS 18 (PURE OXYGEN) - BEIGE; CY BETTER LIPS BALM Humectante para Labios con color FPS 18 (SAND LIFE) - YELLOW; CY BETTER LIPS BALM Humectante para Labios con color FPS 18 (SHINY BROWN) - BROWN; CY BETTER LIPS BALM Humectante para Labios con color FPS 18 (SUN LIGHT) - BEIGE; CY HYDRAFULL LABIAL HIDRATANTE FULL COLOR FPS 15 Apple/Red; CY HYDRAFULL LABIAL HIDRATANTE FULL COLOR FPS 15 Chocolate/Brown; CY HYDRAFULL LABIAL HIDRATANTE FULL COLOR FPS 15 Fucsia/Red; CY HYDRAFULL LABIAL HIDRATANTE FULL COLOR FPS 15 Grape/Red; CY HYDRAFULL LABIAL HIDRATANTE FULL COLOR FPS 15 Marsala/Red; CY HYDRAFULL LABIAL HIDRATANTE FULL COLOR FPS 15 Red/Red; CY HYDRAFULL LABIAL HIDRATANTE FULL COLOR FPS 15 Rose Nude/Red; CY HYDRAFULL LABIAL HIDRATANTE FULL COLOR FPS 15 Rose/Red; Cactus Whitening Sun SPF 34 Pa Plus Plus for Men; Cafe Au Lait Always Color Stay-On Makeup SPF 10; Cafe Mocha Always Color Stay-On Makeup SPF 10; Cafe Mocha Always Stay-on Makeup Broad Spectrum SPF 15 Jafra; Cafe au lait Always Stay-on Makeup Broad Spectrum SPF 15 Jafra; Calcium Repair; Calenda-cucumber Oil-free Moisturizer; Califonia Aloe Ice Puff Sun Clear; California Aloe Daily Moisture Sun Block; California Aloe Mild Sun Block; California Aloe Oil Free Sun Block; California Aloe Power Lasting Sun; California Aloe Power Lasting Sun Block; Calm Dynamics Gentle Hydrating Day SPF 15; Calming Dynamics SPF 15; Camellia Multiaction UV Sun Serum; Camera Ready 5 In 1 Beauty Balm SPF 35; Camera Ready Bb Eyes Bs SPF 15; Camera Ready Bb Water Broad Spectrum SPF 30; Camera Ready Cc Broad Spectrum SPF 30; Canadian Ice Uv Protection SPF 15; Candy Doll Liquid Foundation; Cannon Balm; Cannon Balm 140; Canscreen 400 Lotion; Cappuccino Radiance Foundation Broad Spectrum SPF 20 - Tawny JAFRA; Capture First Action Creme Lissante Jeunesse SPF 8; Capture First Action Fluide Lissant Jeunesse SPF 8; Capture Lift; Capture Rides - Crm; Capture Rides Fluide; Capture Totale Anti-aging Emulsion Uva/uvb Protection; Capture Totale Compact; Capture Totale Dreamskin Perfect Skin Cushion Youth Skincare Perfect Complexion Creator With Sunscreen Broad Spectrum SPF 50 010; Capture Totale Dreamskin Perfect Skin Cushion Youth Skincare Perfect Complexion Creator With Sunscreen Broad Spectrum SPF 50 012; Capture Totale Dreamskin Perfect Skin Cushion Youth Skincare Perfect Complexion Creator With Sunscreen Broad Spectrum SPF 50 020; Capture Totale Dreamskin Perfect Skin Cushion Youth Skincare Perfect Complexion Creator With Sunscreen Broad Spectrum SPF 50 030; Capture Totale Dreamskin Perfect Skin Cushion Youth Skincare Perfect Complexion Creator With Sunscreen Broad Spectrum SPF 50 21; Capture Totale Dreamskin Perfect Skin Cushion Youth Skincare Perfect Complexion Creator With Sunscreen Broad Spectrum SPF 50 25; Capture Totale Dreamskin Perfect Skin Cushion Youth Skincare Perfect Complexion Creator With Sunscreen Broad Spectrum SPF 50 40; Capture Totale Fond De Teint Concentré Régénérateur D'éclat; Capture Totale Fond De Teint Concentré éclat Haute Défintion; Capture Totale Multi-perfection Makeup Base; Capture Totale Radiance Restoring Serum Foundation SPF 15 010; Capture Totale Radiance Restoring Serum Foundation SPF 15 012; Capture Totale Radiance Restoring Serum Foundation SPF 15 020; Capture Totale Radiance Restoring Serum Foundation SPF 15 021; Capture Totale Radiance Restoring Serum Foundation SPF 15 023; Capture Totale Radiance Restoring Serum Foundation SPF 15 030; Capture Totale Radiance Restoring Serum Foundation SPF 15 033; Capture Totale Radiance Restoring Serum Foundation SPF 15 040; Capture Totale Triple Correcting Serum Foundation; Caramel Latte Tinted Moisturizer; Caramel Latte Tinted Moisturizer Broad Spectrum SPF 25 Sunscreen Light To Medium; Caramel Radiance Foundation Broad Spectrum SPF 20 - Tawny JAFRA; Care One Moisture SPF 15 Lip Balm; CareCella Hydration BB Cream; CareOne Daily Moisturizer Broad Spectrum SPF15 Sunscreen; Careline Perfect Care BB; Careline Revival Plus; Cargo Tinted Moisturizer SPF 20; Caribbean Breeze SPF 30 Kids Sunscreen Lotion; Caribbean Breeze SPF 8 Protective Lotion; Caribbean Breeze SPF 8 Protective Oil; Caribbean Breeze Spf12 Sunscreen Spray Lotion; Caribbean Breeze Spf15 Sunscreen Lotion; Caribbean Breeze Spf15 Sunscreen Spray Lotion; Caribbean Breeze Spf2 Oil; Caribbean Breeze Spf20 Sunscreen Spray Lotion; Caribbean Breeze Spf30 Sunscreen Lotion; Caribbean Breeze Spf30 Sunscreen Spray Lotion; Caribbean Breeze Spf4 Lotion; Caribbean Breeze Spf4 Oil; Caribbean Breeze Spf45 Sunscreen Spray Lotion; Caribbean Breeze Spf6 Litescreen Oil; Caribbean Breeze Spf6 Litescreen Spray; Carmex Cherry Flavoured Lip Ointment SPF 15; Carmex Classic Lip Balm Cherry SPF 15; Carmex Classic Lip Balm Medicated SPF 15; Carmex Classic Lip Balm Strawberry SPF 15; Carmex Click-stick Lip Moisturizer With Sun Block SPF 15; Carmex Daily Care Moisturizing Lip Balm Honey Dew Melon SPF 15; Carmex Daily Care Moisturizing Lip Balm Orange Dream SPF 15; Carmex Daily Care Moisturizing Lip Balm SPF 15; Carmex Daily Care Moisturizing Lip Balm Tropical Colada SPF 15; Carmex Daily Care moisturizing Lip Balm Winter Mint SPF 15; Carmex Flavoured Lip Balm; Carmex Lip Moisturizer With Sunscreen SPF 15; Carmex Moisture Plus; Carrot Sun Spf30 Pa Plus Plus; Cashmere Always Color Stay-On Makeup SPF 10; Cashmere Always Stay-on Makeup Broad Spectrum SPF 15 Jafra; Cashmere Moisturizing Makeup Broad Spectrum SPF 15 Jafra; Cathycat Essence Sun Bb; Caudalie Resveratrol Face Lifting Moisturizer Broad Spectrum SPF 20; Cc CRème Color Complexion Correction Broad Spectrum SPF 40; Cc Complete Correction Sunscreen Broad Spectrum SPF 50, 20 Beige; Cc Complete Correction Sunscreen Broad Spectrum SPF 50, 30 Beige; Cc Complete Correction Sunscreen Broad Spectrum SPF 50, 40 Beige; Cc Cream Broad Spectrum SPF 30; Cc Cream Broad Spectrum SPF 40; Cc Cream Correction Complète Complete Correction SPF 50; Cc Creme Color Correction Creme; Cc SPF 18 Fair; Cc SPF 18 Light To Medium; Cc SPF 18 Medium; Cc SPF 18 Medium To Dark; Cel Defense Fluide De Jour Matifiant SPF 15; Celazome Botanical Mositurizer with SPF 15; Celazome Moisturizing SPF 29 Active With Dnarescue; Celazome Moisturizing SPF 30 Active; Celazome Moisturizing Sunscreen SPF 15; Celazome Moisturizing Sunscreen with SPF 30; Celazome Mositurizing Sunscreen with SPF 29; Celazome SPF 29; Celazome SPF 30; Cell Boosting Bb 01 Light Beige; Cell Boosting Bb 02 Natural Beige; Cell Boosting Bb 03 Sand Beige; Cell Boosting Bb Spf30 01 Light Beige; Cell Boosting Bb Spf30 02 Natural Beige; Cell Boosting Bb Spf30 07 Sand Beige; Cellex-C Sun Care; Cellex-C Sun Care SPF 50+; Cellex-C Sun Shade; Cellex-C Suncare SPF 15; Cellex-C Suncare SPF 30; Cellex-C Suncare SPF 32; Cellex-C Sunshade SPF 50+; Cellpium shield sun bb; Cellular Anti-Wrinkle SunScreen SPF 30 La Prarie; Cellular Anti-wrinkle Sun Cream SPF 30; Cellular Anti-wrinkle Sun Sunscreen Broad Spectrum SPF 30; Cellular Aw Sun Block SPF 50; Cellular Brightening System Day Emulsion SPF 15; Cellular Day Defense Firming Complex SPF 15; Cellular Day Defense Firming SPF 25; Cellular Defense Shield Eye Cream SPF 15; Cellular Defense Shield SPF 15; Cellular Energizing Colour Finish SPF 15; Cellular Eye Moisturizer SPF 15 - The Smart Cream; Cellular Lip Treatment SPF 15; Cellular Moisturizer SPF 15 - The Smart Cream; Cellular Protective Body Emulsion SPF 30; Cellular Purifying Systeme Hydrating Fluid SPF 15; Cellular Radiance Emulsion SPF 30 La Prairie; Cellular Radiance Sunscreen SPF 30; Cellular Swiss Ice Crystal Transforming Cream SPF 30 - Beige; Cellular Swiss Ice Crystal Transforming Cream SPF 30 - Nude; Cellular Swiss Ice Crystal Transforming Cream SPF 30 - Rose; Cellular Swiss Ice Crystal Transforming Cream SPF 30 - Tan; Cellular Swiss Protection Veil Broad Spectrum SPF 50; Cellular Swiss Sunscreen Broad Spectrum SPF 30; Cellular Swiss UV Protection Veil Sunscreen Broad Spectrum SPF 50 La Prairie; Cellular Time Release Moisture Lotion SPF 15; CeraVe AM BROAD SPECTRUM SUNSCREEN SPF 30; CeraVe AM Sunscreen Broad Spectrum 30 SPF; CeraVe Skin Renewing Day Cream with Broad Spectrum SPF 30 Sunscreen; CeraVe Sunscreen Broad Spectrum SPF 30 BODY; CeraVe Sunscreen Broad Spectrum SPF 30 FACE; Ceramide EyeWish Eye Sunscreen SPF 10; Ceramide Eyewish Eye Cream SPF 10; Ceramide Lift And Firm Day Broad Spectrum Sunscreen SPF 30; Ceramide Lift And Firm Eye Sunscreen SPF 15; Ceramide Lift And Firm Makeup Broad Spectrum Sunscreen SPF 15 Cream; Ceramide Lift And Firm Makeup Broad Spectrum Sunscreen SPF 15 Toast; Ceramide Lift And Firm Makeup Broad Sprectrum Sunscreen SPF 15 Sandstone; Ceramide Lift and Firm Cream Makeup SPF 15; Ceramide Lift and Firm Day Cream SPF 30; Ceramide Lift and Firm Day Lotion SPF 30; Ceramide Lift and Firm Eye Cream SPF 15; Ceramide Lift and Firm Makeup Broad Spectrum Sunscreen SPF 15 Beige; Ceramide Lift and Firm Makeup Broad Spectrum Sunscreen SPF 15 Bisque; Ceramide Lift and Firm Makeup Broad Spectrum Sunscreen SPF 15 Buff; Ceramide Lift and Firm Makeup Broad Spectrum Sunscreen SPF 15 Cameo; Ceramide Lift and Firm Makeup Broad Spectrum Sunscreen SPF 15 Cocoa; Ceramide Lift and Firm Makeup Broad Spectrum Sunscreen SPF 15 Cognac; Ceramide Lift and Firm Makeup Broad Spectrum Sunscreen SPF 15 Ecru; Ceramide Lift and Firm Makeup Broad Spectrum Sunscreen SPF 15 Gentle Beige; Ceramide Lift and Firm Makeup Broad Spectrum Sunscreen SPF 15 Java; Ceramide Lift and Firm Makeup Broad Spectrum Sunscreen SPF 15 Mocha; Ceramide Lift and Firm Makeup Broad Spectrum Sunscreen SPF 15 Perfect Beige; Ceramide Lift and Firm Makeup Broad Spectrum Sunscreen SPF 15 Spice; Ceramide Lift and Firm Makeup Broad Spectrum Sunscreen SPF 15 Toasty Beige; Ceramide Lift and Firm Makeup Broad Spectrum Sunscreen SPF 15 True Beige; Ceramide Lift and Firm Makeup Broad Spectrum Sunscreen SPF 15 Vanilla Shell; Ceramide Lift and Firm Makeup Broad Spectrum Sunscreen SPF 15 Warm Bisque; Ceramide Lift and Firm Makeup Broad Spectrum Sunscreen SPF 15 Warm Bronze; Ceramide Lift and Firm Makeup Broad Spectrum Sunscreen SPF 15 Warm Honey; Ceramide Lift and Firm Makeup Broad Spectrum Sunscreen SPF 15 Warm Sunbeige; Ceramide Plump Perfect Lip Moisture SPF 30; Ceramide Premier Intense Moisture and Renewal Activation Broad Spectrum SPF 30; Ceramide Premiere Intense Moisture and Renewal Activation Cream SPF 30; Ceramide Time Complex Moisture Cream SPF 15; Cerave; Cetaphil Daily Facial Moisturizer     (SPF 50); Cetaphil Daily Facial Moisturizer SPF 50; Cetaphil Daily Facial Moisturizer with suncreen SPF 50; Cg Smoothers SPF 15 Tinted Moisture; Chanel Precision - Fluide Multi-protection; Chantecaille Ultra Sun Protection Sunscreen Broad Spectrum SPF 45 Primer; Chap - Grip SPF 15; ChapIce Moisture SPF 15 Lip Balm; ChapIce SPF 30 Lip Balm; ChapStick Active Sport Ready; ChapStick Hydration Lock Day and Night; Chapfix+; Chapstick Active SPF 30; Chapstick Lipshield 365; Chapstick Moisturizer; Chapstick Moisturizer Green Apple; Chapstick Moisturizer Raspberry Creme; Chapstick Moisturizer Vanilla Mint; Chapstick Ultra Moisture; Chapstick Ultra SPF 30; Charmzone ALBATROSS Powder Sun (SPF41 PA); Cherry Candy Cane Lip Balm; Children's Sunblock Lot SPF 30; Children's Sunscreen SPF 15; Chopper Chap Lip Balm; Chrono Repair Solaire; Cicatricure; Citrus Mimosa Body SPF 30 Broad Spectrum Sunscreen Continuous; Ck One 3-IN-1 Face Makeup With SPF 8 Sunscreen; Ck One 3-IN-1 Face Makeup With SPF 8 Sunscreen 050 Ivory; Ck One 3-IN-1 Face Makeup With SPF 8 Sunscreen 350 Warm Sand; Ck One 3-IN-1 Face Makeup With SPF 8 Sunscreen 850 Toffee; Ck One 3-IN-1 Face Makeup With SPF 8 Sunscreen 900 Walnut; Ck One 3-IN-1 Face Makeup With SPF 8 Sunscreen 950 Espresso; Ck One All Day Perfection Face Makeup SPF 20 Sunscreen; Ck One All Day Perfection Face Makeup SPF 20 Sunscreen 050 Ivory; Ck One All Day Perfection Face Makeup SPF 20 Sunscreen 100 Porcelain; Ck One All Day Perfection Face Makeup SPF 20 Sunscreen 300 Sand; Ck One All Day Perfection Face Makeup SPF 20 Sunscreen 350 Warm Sand; Ck One All Day Perfection Face Makeup SPF 20 Sunscreen 400 Bisque; Ck One All Day Perfection Face Makeup SPF 20 Sunscreen 500 Tan; Ck One All Day Perfection Face Makeup SPF 20 Sunscreen 600 Honey; Ck One Waterfresh Face Makeup SPF 15 200 Fair; Ck One Waterfresh Face Makeup SPF 15 300 Sand; Ck One Waterfresh Face Makeup SPF 15 350 Beige; Ck One Waterfresh Face Makeup SPF 15 400 Bisque; Ck One Waterfresh Face Makeup SPF 15 450 Golden; Ck One Waterfresh Face Makeup SPF 15 500 Tan; Ck One Waterfresh Face Makeup SPF 15 600 Honey; Ck One Waterfresh Face Makeup SPF 15 700 Caramel; Ck One Waterfresh Face Makeup SPF 15 800 Cappucino; Ck One3-IN-1face Makeup With Spf8 Sunscreen; Clamue Healthy Fresh BB Cream Light; Clamue Healthy Fresh BB Cream Light Medium; Clamue Healthy Fresh BB Cream Medium; Clamue Healthy Fresh BB Cream Medium Deep; Clapiel Defense Sunblock; Clarant B3; Clarifying Calming Oil-control Lotion SPF 15; Clarifying Line Broad Spectrum SPF 50 EXEL; Clarins Broad Spectrum SPF 15 Sunscreen Delectable Self Tanning Mousse; Clarins Self Tanning Milk With Sun Protection Spf 6; Clarins Super Restorative Day; Classic Body Plumeria SPF 30 Broad Spectrum; Classic Face Sport White Tea SPF 50 Broad Spectrum; Classic Moisturizing Body SPF 30 Broad Spectrum; Classic Sport Mango SPF 30 Broad Spectrum; Classic Sport Unscented SPF 30 Broad Spectrum; Classic Sport Unscented SPF 50 Broad Spectrum; Classic Unscented SPF 15 Broad Spectrum; Cle De Peau Beaute 30 Soin Protecteur Uv Pour Les Levres; Cle De Peau Beaute 50+ Creme Teintee Protectrice Uv; Cle De Peau Beaute B10; Cle De Peau Beaute B20; Cle De Peau Beaute B30; Cle De Peau Beaute Bf20; Cle De Peau Beaute Correcting Veil; Cle De Peau Beaute Gentle Protective I; Cle De Peau Beaute Hand; Cle De Peau Beaute I10; Cle De Peau Beaute O10; Cle De Peau Beaute O20; Cle De Peau Beaute O30; Cle De Peau Beaute Protective Fortifying; Cle De Peau Beaute Radiant Fluid Foundation B10; Cle De Peau Beaute Radiant Fluid Foundation B20; Cle De Peau Beaute Radiant Fluid Foundation B30; Cle De Peau Beaute Radiant Fluid Foundation Bf20; Cle De Peau Beaute Radiant Fluid Foundation I10; Cle De Peau Beaute Radiant Fluid Foundation O10; Cle De Peau Beaute Radiant Fluid Foundation O20; Cle De Peau Beaute Radiant Fluid Foundation O30; Cle De Peau Beaute Radiant Fluid Foundation O40; Cle De Peau Beaute Radiant Fluid Foundation O50; Cle De Peau Beaute Radiant Fluid Foundation O60; Cle De Peau Beaute Radiant Fluid Foundation Wb20; Cle De Peau Beaute Radiant Foundation B10; Cle De Peau Beaute Radiant Foundation B20; Cle De Peau Beaute Radiant Foundation B30; Cle De Peau Beaute Radiant Foundation Beige; Cle De Peau Beaute Radiant Foundation Bf20; Cle De Peau Beaute Radiant Foundation I10; Cle De Peau Beaute Radiant Foundation Ivory; Cle De Peau Beaute Radiant Foundation Mocha; Cle De Peau Beaute Radiant Foundation O10; Cle De Peau Beaute Radiant Foundation O20; Cle De Peau Beaute Radiant Foundation O30; Cle De Peau Beaute Radiant Foundation O40; Cle De Peau Beaute Radiant Foundation O50; Cle De Peau Beaute Radiant Foundation O60; Cle De Peau Beaute Radiant Foundation Ocher; Cle De Peau Beaute Radiant Foundation Wb20; Cle De Peau Beaute Refining Fluid Foundation B10; Cle De Peau Beaute Refining Fluid Foundation B20; Cle De Peau Beaute Refining Fluid Foundation B30; Cle De Peau Beaute Refining Fluid Foundation Bf20; Cle De Peau Beaute Refining Fluid Foundation I10; Cle De Peau Beaute Refining Fluid Foundation O10; Cle De Peau Beaute Refining Fluid Foundation O20; Cle De Peau Beaute Refining Fluid Foundation O30; Cle De Peau Beaute Refining Fluid Foundation O40; Cle De Peau Beaute Refining Fluid Foundation O50; Cle De Peau Beaute Refining Fluid Foundation O60; Cle De Peau Beaute Refreshing Protective I; Cle De Peau Beaute Sheer Fluid Veil; Cle De Peau Beaute Silky Foundation I B10; Cle De Peau Beaute Silky Foundation I B20; Cle De Peau Beaute Silky Foundation I B30; Cle De Peau Beaute Silky Foundation I Bf20; Cle De Peau Beaute Silky Foundation I I10; Cle De Peau Beaute Silky Foundation I O10; Cle De Peau Beaute Silky Foundation I O20; Cle De Peau Beaute Silky Foundation I O30; Cle De Peau Beaute Smoothing Base for Pores; Cle De Peau Beaute Synactif Daytime Moisturizer; Cle De Peau Beaute Teint Stick Eclat; Cle De Peau Beaute The Foundation B10; Cle De Peau Beaute The Foundation B20; Cle De Peau Beaute The Foundation B30; Cle De Peau Beaute The Foundation Bf20; Cle De Peau Beaute The Foundation I10; Cle De Peau Beaute The Foundation O10; Cle De Peau Beaute The Foundation O20; Cle De Peau Beaute The Foundation O30; Cle De Peau Beaute The Foundation O40; Cle De Peau Beaute The Foundation O50; Cle De Peau Beaute The Foundation O60; Cle De Peau Beaute The Foundation Wb20; Cle De Peau Beaute Uv Protection; Cle De Peau Beaute Uv Protective; Cle De Peau Beaute Uv Protective Lip Treatment; Cle De Peau Beaute Uv Protective Tinted Dark; Cle De Peau Beaute Uv Protective Tinted Ivory; Cle De Peau Beaute Uv Protective Tinted Ocher; Cle De Peau Beaute Uv Protective Very High Protection for Body; Cle De Peau Beaute Uv Protective for Body; Clean & Clear Morning Glow Moisturizer SPF 15; Clean Face Oil Control Sun Cream SPF 35 Pa++; Clean Face Oil Free Sun Cream SPF 35/pa++; Clean and Clear Finishes Mattifying Moisturizer SPF 15; Clean and Clear Morning Glow Moisturizer Sunscreen Broad Spectrum SPF 15; Clean and Clear Oxygenating Ultra Light Moisturizer; Clear Complexion Bb Cream; Clear Complexion Bb Cream SPF 30 Medium; Clear Difference Bb Complexion Perfecting Bb Broad Spectrum SPF 35; Clear Essence Medicated Fade Cream; Clear SPF 30 Sunscreen Spray; Clear Stick Uv Protector; Clear Sunscreen Stick; Clear Ultra-light Daily Mattifying Fluid Broad Spectrum SPF 30; Clearasil Total Control All Day Mattifying Moisturizer; Clearskin Professional Oil Free; Clearskin Professional Oil Free Lotion SPF 15 Lotion Sans Huile Fps 15; Clematis Base Cushion; Clematis Hydro Protective Uv Sun Essence; Cler Zinck 45 SPF Sunblock; Climatik SPF 30 Fps Lip Balm Baume A Levres; Climatik SPF 30 Fps Protective Cream CRème Protectrice; Climatik SPF 30 Fps Protective Lotion Lotion Protectrice; Clindasol; Clinic A Retinol Vital Day Moist Lot Spf20; Clinique Acne Solutions Bb Cream SPF 40 Combination Oily To Oily; Clinique Advanced Stop Signs Eye Preventive Cream SPF 15; Clinique Advanced Stop Signs Eye Preventive Cream Spf15; Clinique Age Defense Bb Cream SPF 30; Clinique Almost Powder Makeup SPF 15; Clinique Cx Protective Base SPF 40; Clinique Even Better Glow Light Reflecting Makeup SPF 15; Clinique Even Better Makeup SPF 15; Clinique Face Zone Sun Block 30 SPF; Clinique Fit Workout Makeup Broad Spectrum SPF 40; Clinique Fit Workout Makeup SPF 40; Clinique Good Day Face SPF 6; Clinique High Impact Lip Colour SPF 15; Clinique Long Last Glosswear SPF 15; Clinique Moisture Sheer Lipstick SPF 15; Clinique Moisture Sheer Tint SPF 15; Clinique Moisture Surge Cc Compact Hydrating Colour Corrector Broad Spectrum SPF 25; Clinique Moisture Surge Cc Cream Compact Hydrating Colour Corrector SPF 25; Clinique Moisture Surge Cc Cream Hydrating Colour Corrector SPF 30; Clinique Moisture Surge Lipstick SPF 15; Clinique Moisture Surge Tinted Moisturizer SPF 15; Clinique Redness Solutions Makeup SPF 15 With Probiotic Technology; Clinique Repairwear Day SPF 15 Intensive Cream; Clinique Repairwear Day SPF 15 Intensive Cream Very Dry Skin Formula; Clinique Repairwear Day SPF 15 Intensive Lotion; Clinique Repairwear Laser Focus Line Smoothing Cream SPF 15 Combination Oily To Oily; Clinique Repairwear Laser Focus Line Smoothing Cream SPF 15 Very Dry To Dry Combination; Clinique Repairwear Uplifting Firming Broad Spectrum SPF 15 Dry Combo Oily; Clinique Repairwear Uplifting Firming Cream SPF 15 Dry Combination To Combination Oily; Clinique Repairwear Uplifting Firming Cream SPF 15 Very Dry To Dry; Clinique SPF 30 Uva/uvb Mineral Powder Makeup for Face; Clinique SPF 30 With Solarsmart+ Oil-free Face Cream; Clinique Skin Supplies for Men; Clinique Skin Supplies for Men Age Defense Hydrator Broad Spectrum SPF 15; Clinique Skin Supplies for Men Age Defense Hydrator SPF 15; Clinique Skin Supplies for Men Lip Balm SPF 15; Clinique Skin Supplies for Men M Protect SPF 21; Clinique Sun-care Body Gel 15 SPF Sunscreen; Clinique Sun-care Body Spray 15 SPF Sun Block; Clinique Sun-care Body Spray 30 SPF Sun Block; Clinique Sun-care Lip/eye 30 SPF Sun Block; Clinique Sun-care Uv-response Body Cream 30 SPF Sunscreen; Clinique Sun-care Uv-response Body Cream 50 SPF Sunscreen; Clinique Sun-care Uv-response Face Cream 30 SPF Sunscreen; Clinique Sun-care Uv-response Face Cream 50 SPF Sunscreen; Clinique Super City Block Oil-free Daily Face Protector SPF 40; Clinique Superbalanced Compact Makeup SPF 20; Clinique Superbalanced Silk Makeup Broad Spectrum SPF 15; Clinique Superbalanced Silk Makeup SPF 15; Clinique Superdefense Triple Action Moisturizer SPF 25 Normal To Dry Skin; Clinique Superdefense Triple Action Moisturizer SPF 25 Normal To Oily Skin; Clinique Superdefense Triple Action Moisturizer SPF 25 for Very Dry Skin; Clinique Youth Surge SPF 15 Age Decelerating Moisturizer Combination Oily; Clinique Youth Surge SPF 15 Age Decelerating Moisturizer Dry Combination; Clinique for Men SPF 21 Moisturizer; Clé De Peau Beauté 30 émulsion Protectrice Uv Pour Le Corps; Clé De Peau Beauté 50+ CRème Protectrice Uv; Clé De Peau Beauté 50+ émulsion Très Haute Protection Uv Pour Le Corps; Clé De Peau Beauté CRème Fortifiante Protectrice; Clé De Peau Beauté CRème Pour Les Mains; Clé De Peau Beauté Radiant Cream Foundation; Clé De Peau Beauté émulsion Fortifiante Protectrice; Cocoa Always Color Stay-On Makeup SPF 10; Cocoa Always Color Stay-on Makeup Broad Spectrum SPF 15 Jafra; Cocoa Latte Tinted Moisturizer; Cocoa Latte Tinted Moisturizer Broad Spectrum SPF 25 Sunscreen Medium To Dark; Coconut Sunscreen Lip Moisturizer; Cold Sore Support; Collagen Dream 50 Radiance All In One Tone Up; Collagen Hd Aqua Bb Spf27 Pa Plus Plus; Collagen Hd Cover Bb Spf27 Pa Plus Plus; Collagen Hd Foundation Spf30 Pa Plus Plus 21 Soft Beige; Collagen Hd Foundation Spf30 Pa Plus Plus 23 Medium Beige; Collagen Hd Make Up Base Spf30 Pa Plus Plus 01 Green; Collagen Hd Make Up Base Spf30 Pa Plus Plus 02 Violet; Collagen Hd Pearl Bb Spf27 Pa Plus Plus; Collagen Hd Priimer Bb Spf27 Pa Plus Plus; Collagen Moisture Filler; Color Correcting Primer Green; Color Correcting Primer Purple; Color Correction Creme Dark; Color Correction Creme Light; Color Correction Creme Medium; Color Extend Sun Take Cover SPF/fps 25; Color Icon Bronzer SPF 15; Come In The Sun SPF 30; Compact Foundation SPF 50 Color 01; Compact Foundation SPF 50 Color 02; Compact Foundation SPF 50 Color 03; Compact Teinte Protection Intense Galenic SPF 40 (beige Natural); Compact Teinte Protection Intense Galenic SPF 40 (hale Dore); Complete Beauty; Concealer Stick; Condition and Enhance Healthy Skin Protection SPF 35; Condition and Enhance System Full-size Non-surgical; Condition and Enhance System Travel-size Non-surgical; Condition and Enhance System Travel-size Surgical; Conju Princess UV Sun Block; Continuous Spray Lotion; Continuum Unifying Lotion I; Continuum Unifying Lotion II; Control Dynamics Mattifying SPF 15; Cool Aqua Lipbalm SPF 15; Cool Sport SPF 50; Coola Citrus Mimosa Scent Sunscreen Spray; Coola Makeup Setting Spray Green Tea Scent; Coola Pina Colada Scent Sunscreen Spray; Coppertone Bug & Sun Block SPF 15; Coppertone Bug & Sun Block SPF 30; Coppertone Continuous Spray Sunscreen SPF 30; Coppertone Defend and Care Face Clear Zinc SPF 50; Coppertone Defend and Care Face Sensitive Skin SPF 50; Coppertone Dry Oil Mist Sunscreen Continuous Spray SPF 10; Coppertone Dry Oil Sunscreen Spray SPF 8; Coppertone Dry SPF 10; Coppertone Faces Only Sunblock Lot SPF 15; Coppertone KIDS SPF 30; Coppertone Kids - SPF 40 Lot Top; Coppertone Kids Colorblok Lotion SPF 30; Coppertone Kids Colorblok SPF 40; Coppertone Kids Colorblok Spf30; Coppertone Kids Colorblok Spray SPF 30; Coppertone Kids Foam SPF 40; Coppertone Kids Glitter Lotion SPF 30; Coppertone Kids SPF 15 Sunblock Lotion; Coppertone Kids SPF 30 - Lot; Coppertone Kids SPF 30 Sunblock Lotion; Coppertone Kids SPF 40 - Lot; Coppertone Kids SPF 50; Coppertone Kids Spray Lotion SPF 30; Coppertone Kids Spray'n Play SPF 30; Coppertone Kids Sunblock Lotion Spray SPF 30; Coppertone Lipkote Spf15; Coppertone Noskote 15 Crm; Coppertone Oil Free - SPF 15 Lot Top; Coppertone Oil Free Lotion SPF 15; Coppertone Oil Free Lotion SPF 30; Coppertone Oil Free Lotion SPF-30; Coppertone Oil Free Lotion SPF-45; Coppertone Oil Free SPF 8 - Lot; Coppertone Oil Free SPF 8-lot Top; Coppertone Radiance - Spf15 - Lot Top; Coppertone Radiance SPF 15 - Lot; Coppertone SPF 4; Coppertone SPF 8; Coppertone Sensitive Skin SPF 50; Coppertone Skin Selects for Dry Skin -spf15; Coppertone Skin Selects for Oily Skin-spf15; Coppertone Skin Selects for Sens.skin Spf15; Coppertone Spectra 3 Babies Lotion SPF 50; Coppertone Spectra 3 Kids Lotion SPF 50; Coppertone Spectra 3 Lotion SPF 30; Coppertone Spectra 3 Lotion SPF 50; Coppertone Spectra SPF 30; Coppertone Sport Continuous SPF 100 Plus; Coppertone Sport Continuous Spray Sunscreen SPF 15; Coppertone Sport Continuous Spray Sunscreen SPF 30; Coppertone Sport Lotion SPF 15; Coppertone Sport Lotion SPF 30; Coppertone Sport Lotion SPF-30; Coppertone Sport SPF 100; Coppertone Sport SPF 15 Lotion; Coppertone Sport SPF 30 Lotion; Coppertone Sport SPF 8 Lotion; Coppertone Sport Spray SPF 15; Coppertone Sport Spray SPF 30; Coppertone Sport Sunblock Stick SPF 30; Coppertone Spray SPF 15; Coppertone Spray SPF 30; Coppertone Sunblock Lotion SPF 45; Coppertone Sunblock Lotion Spf30; Coppertone Sunblock Lotion Spf45; Coppertone Sunscreen Continuous Spray SPF 15; Coppertone Sunscreen Lotion SPF 15; Coppertone Sunscreen Lotion SPF 50 Defend & Care Face Sensitive Skin; Coppertone Sunscreen Lotion SPF 50 Defend & Care Sensitive Skin; Coppertone Sunscreen Lotion SPF 8 Defend & Glow; Coppertone Suntan Lot SPF-4; Coppertone Suntan Lotion Spf4; Coppertone Tanning Defend and Glow SPF 10; Coppertone Tanning Defend and Glow SPF 8; Coppertone Tanning Dry Oil SPF 10; Coppertone Tattoo Guard SPF 50; Coppertone Uv Guard SPF-30 Lotion; Coppertone Uvguard SPF 15 Lotion; Coppertone Water Babies Stick SPF 50; Coppertone Water Babies Sunblock Crm Spf25; Coppertone Water Babies Sunblock Lot Spf30; Coppertone Waterbabies Spray SPF 30; Coppertone Waterbabies Spray SPF-45; Coppertone Waterbabies Sunblock Lot SPF 45; Coppertone Waterbabies Sunblock Stick SPF 30; Coppertone waterBABIES Pure and Simple SPF 50; Coral Bay Juicy Lip Fix SPF45; CoreTex Sun X SPF 30; Correcting Moisturizer SPF 15; Correction Code (A.M.) Daily Moisturizer Broad Spectrum SPF 25; Correway Sunscreen (Non-waterproof); Correway Sunscreen (Waterproof); Cosmedix SPF50; Cotton Candy Sunscreen Lip Moisturizer; Cover 10 Perfect BB Light; Cover 10 Perfect BB Natural; Cover 10 Perfect Foundation BE10; Cover 10 Perfect Foundation BE20; Cover 10 Perfect Foundation BP15; Cover Fx Total Coverage Cream Foundation SPF 30; Cover Girl Advanced Radiance Age Defying Make-UP; Cover Girl Advanced Radiance Age Defying Sheer Moisturizing Make-UP; Cover Girl Advanced Radiance Restorative Cream Foundation; Cover Girl Natureluxe Gloss Balm; Cover Girl Outlast All-day Liquid Makeup; Cover Girl Outlast Liquid Make-UP - Basecoat; Cover Girl Simply Summer Powder Foundation; Cover Girl Triple Lipstick; Cover Girl Trublend Powder Foundation; Cover Tint SPF 20 - Dark; Cover Tint SPF 20 - Light; Cover Tint SPF 20 - Medium; Covergirl Advanced Radiance Age Defying Makeup plus Sunscreen SPF 10 (All shades); Covergirl Natureluxe Silk Foundation Spf10; Covergirl Smoothers Tinted Moisturizer BB Broad Spectrum SPF 21 (all shades); Covergirl Smoothers Tinted Moisturizer BB Cream Broad Spectrum SPF 15 (all shades); Covergirl cgsmoothers BB Tinted Moisturizer Broad Spectrum SPF 21 (all shades); Crayon Soin Pour Les Levres/lipcare Pencil; Creal Zink Sunscreen SPF 50 Well at Walgreens; Creamy Beige Expert Finish Makeup Broad Spectrum SPF 25 Merle Norman; Creamy Beige Perfecting Makeup Broad Spectrum SPF 25 Merle Norman; Creme Anti-rides Auto-bronzante SPF 15; Creme Antirougeurs Apaisante Fps 25; Creme Aquamucine Cream Fps 15 SPF; Creme Bronzante Neige Et Montagne; Creme D'activation; Creme De Bronzage A LA Carotte; Creme De Jour Au Retinol; Creme De Jour Multi-action SPF 7; Creme De Teint Compacte/compact Foundation Cream Texture Confort/rich Formula Fps/spf30; Creme De Teint Compacte/compact Foundation Cream Texture Poudree Non Grasse/oil Free Powdered Formula Fps/SPF 30; Creme De Traitement Des Intolerances Solaires; Creme Ecran Solaire; Creme Haute Exigence Jour SPF 20; Creme Hiver  -  Creme; Creme Hiver Peau Sensible; Creme Pour Peaux Intolerantes Au Soleil; Creme Protection Solaire Large Spectre Uva-uvb Fps 45; Creme Protectrice Anti-rides / Age Defying Protecting Cream SPF 10; Creme Solaire A Tres Haut Facteur De Protection Au Beurre De Karite; Creme Solaire Anti-age SPF 20; Creme Solaire Anti-rides SPF 10; Creme Solaire Anti-rides Visage SPF 20; Creme Solaire Anti-rides Visage SPF 30; Creme Solaire Bronzage Rapide Special Peaux Mates SPF 10; Creme Solaire Bronzage Securite SPF 15; Creme Solaire Bronzage Securite SPF 20; Creme Solaire Ecran Special Visage SPF 30; Creme Solaire Fondante Protection Minimale 10 SPF; Creme Solaire Haute Protection 20 SPF; Creme Solaire Haute Protection SPF 20; Creme Solaire Haute Protection Special Enfants Et Peaux Reactives Au Soleil SPF 30; Creme Solaire Haute Protection Special Sports SPF 15; Creme Solaire Haute Protection Special Visage 15 SPF; Creme Solaire Haute Protection Special Visage SPF 15; Creme Solaire No.40; Creme Solaire SPF 15; Creme Solaire Tres Haute Protection Special Intolerances 30 SPF; Creme Solaire Tres Haute Protection Special Intolerances SPF 30; Creme Solaire Tres Haute Protection Special Peaux Sensibles 30 SPF; Crystal Miracle Multi; Cvs Pharmacy Calming Daily Moisturizer; Cvs Pharmacy Illuminating; Cvs SPF 8; Cy Go Nude Base Ligera Acabo Natural Cobertura Media FPS 20; Cyantific Protecting Daily Broad Spectrum SPF 30; Cyberderm Every Morning Sun Whip SPF 25; Cyberwhite EX Extra Intensive Bb Creme Multi Action Formula Spf35; Cyzone Cy; Cyzone Cy Cover Mat; Cyzone Cy Perlips Labial Hidratante Con Perlas De Luz Y Fps 20; Cyzone Cy Soluxion Aclaradora Fps 15; Cyzone Cy Soluxion Desmanchadora Fps 15; Cyzone Express Your Face; Cyzone SUN BY ME Sunblock SPF 50; Cyzone Studio Look Base De Alta Cobertura Para El Rostro Con Fps 20 (light 1) - Beige; Cyzone Studio Look Base De Alta Cobertura Para El Rostro Con Fps 20 (light 2) - Beige; Cyzone Studio Look Base De Alta Cobertura Para El Rostro Con Fps 20 (medium 1) - Beige; Cyzone Studio Look Base De Alta Cobertura Para El Rostro Con Fps 20 (medium 2) - Beige; Cyzone Studio Look Base De Alta Cobertura Para El Rostro Con Fps 20 (medium 3) - Beige; Cyzone Studio Look Base De Alta Cobertura Para El Rostro Con Fps 20 (medium 4) - Brown; Cyzone Studio Look Base De Alta Cobertura Para El Rostro Con Fps 20 (obscure 1) - Brown; Cyzone Studio Look Polvos Compactos De Alta Cobertura Con Fps 20 (light 1) - Beige; Cyzone Studio Look Polvos Compactos De Alta Cobertura Con Fps 20 (light 2) - Beige; Cyzone Studio Look Polvos Compactos De Alta Cobertura Con Fps 20 (medium 1) - Beige; Cyzone Studio Look Polvos Compactos De Alta Cobertura Con Fps 20 (medium 2) - Beige; Cyzone Studio Look Polvos Compactos De Alta Cobertura Con Fps 20 (medium 3) - Beige; Cyzone Studio Look Polvos Compactos De Alta Cobertura Con Fps 20 (medium 4) - Brown; Cyzone Studio Look Polvos Compactos De Alta Cobertura Con Fps 20 (obscure 1) - Brown; Cyzone Sun By Me; Cyzone Sun By Me Face Screen Fps 50 Amplio Espectro; Cyzone better lips balm; D-one By Tamdoan Bb Light; D-one By Tamdoan Bb Medium; D-one By Tamdoan Sunscreen 50; DAILY DEFENCE SUNSCREEN Broad Spectrum SPF30; DAY Daily Anti-Aging Moisturizing Face Broad Spectrum SPF 20 Sunscreen; DEAR KLAIRS Illuminating Supple Blemish Cream; DEARSIR UV Ultra Protection Sun; DHC Camu Camu White Day Milk; DIOR PRESTIGE LE NECTAR DE TEINT Exceptional Revitalizing Foundation Satin Radiance with Sunscreen Broad Spectrum SPF20 TINTS 010; DIOR PRESTIGE LE NECTAR DE TEINT Exceptional Revitalizing Foundation Satin Radiance with Sunscreen Broad Spectrum SPF20 TINTS 020; DIOR PRESTIGE LE NECTAR DE TEINT Exceptional Revitalizing Foundation Satin Radiance with Sunscreen Broad Spectrum SPF20 TINTS 021; DIOR PRESTIGE LE NECTAR DE TEINT Exceptional Revitalizing Foundation Satin Radiance with Sunscreen Broad Spectrum SPF20 TINTS 030; DIORSKIN FOREVER EVER WEAR Extreme Perfection Hold Makeup Base with Sunscreen SPF20 001; DIORSKIN FOREVER Perfect Makeup Everlasting Wear Pore-Refining Effect with Sunscreen Broad Spectrum SPF 35 010; DIORSKIN FOREVER Perfect Makeup Everlasting Wear Pore-Refining Effect with Sunscreen Broad Spectrum SPF 35 020; DIORSKIN FOREVER Perfect Makeup Everlasting Wear Pore-Refining Effect with Sunscreen Broad Spectrum SPF 35 021; DIORSKIN FOREVER Perfect Makeup Everlasting Wear Pore-Refining Effect with Sunscreen Broad Spectrum SPF 35 022; DIORSKIN FOREVER Perfect Makeup Everlasting Wear Pore-Refining Effect with Sunscreen Broad Spectrum SPF 35 023; DIORSKIN FOREVER Perfect Makeup Everlasting Wear Pore-Refining Effect with Sunscreen Broad Spectrum SPF 35 030; DIORSKIN FOREVER Perfect Makeup Everlasting Wear Pore-Refining Effect with Sunscreen Broad Spectrum SPF 35 031; DIORSKIN FOREVER Perfect Makeup Everlasting Wear Pore-Refining Effect with Sunscreen Broad Spectrum SPF 35 032; DIORSKIN FOREVER Perfect Makeup Everlasting Wear Pore-Refining Effect with Sunscreen Broad Spectrum SPF 35 033; DIORSKIN FOREVER Perfect Makeup Everlasting Wear Pore-Refining Effect with Sunscreen Broad Spectrum SPF 35 034; DIORSKIN FOREVER Perfect Makeup Everlasting Wear Pore-Refining Effect with Sunscreen Broad Spectrum SPF 35 035; DIORSKIN FOREVER Perfect Makeup Everlasting Wear Pore-Refining Effect with Sunscreen Broad Spectrum SPF 35 040; DIORSKIN FOREVER Perfect Makeup Everlasting Wear Pore-Refining Effect with Sunscreen Broad Spectrum SPF 35 050; DIORSKIN FOREVER Perfect Makeup Everlasting Wear Pore-Refining Effect with Sunscreen Broad Spectrum SPF 35 060; DIORSKIN FOREVER Perfect Makeup Everlasting Wear Pore-Refining Effect with Sunscreen Broad Spectrum SPF 35 070; DIORSKIN FOREVER Perfect Makeup Everlasting Wear Pore-Refining Effect with Sunscreen Broad Spectrum SPF 35 080; DIORSKIN FOREVER Perfect Makeup Everlasting Wear Pore-Refining Effect with Sunscreen Broad Spectrum SPF 35 tints 014; DIORSKIN FOREVER Perfect Makeup Everlasting Wear Pore-Refining Effect with Sunscreen Broad Spectrum SPF 35 tints 015; DIORSKIN FOREVER Perfect Makeup Everlasting Wear Pore-Refining Effect with Sunscreen Broad Spectrum SPF 35 tints 024; DIORSKIN FOREVER Perfect Makeup Everlasting Wear Pore-Refining Effect with Sunscreen Broad Spectrum SPF 35 tints 025; DIORSKIN FOREVER Perfect Makeup Everlasting Wear Pore-Refining Effect with Sunscreen Broad Spectrum SPF 35 tints 041; DIORSKIN FOREVER Perfect Makeup Everlasting Wear Pore-Refining Effect with Sunscreen Broad Spectrum SPF 35 tints 044; DIORSKIN FOREVER Perfect Makeup Everlasting Wear Pore-Refining Effect with Sunscreen Broad Spectrum SPF 35 tints 045; DIORSKIN FOREVER Perfect Makeup Everlasting Wear Pore-Refining Effect with Sunscreen Broad Spectrum SPF 35 tints 051; DIORSKIN NUDE AIR LUMINIZER Fluide Illuminateur Bonne Mine Naturelle Healthy Glow Liquid Luminizer with Sunscreen Broad Spectrum SPF 8; DIORSKIN NUDE AIR Nude Healthy Glow Ultra-Fluid Serum Foundation with Sunscreen Broad Spectrum SPF25 020 Light Beige; DIORSKIN NUDE AIR Nude Healthy Glow Ultra-Fluid Serum Foundation with Sunscreen Broad Spectrum SPF25 021 Linen; DIORSKIN NUDE AIR Nude Healthy Glow Ultra-Fluid Serum Foundation with Sunscreen Broad Spectrum SPF25 023 Peach; DIORSKIN NUDE AIR Nude Healthy Glow Ultra-Fluid Serum Foundation with Sunscreen Broad Spectrum SPF25 030 Medium; DIORSKIN NUDE AIR Nude Healthy Glow Ultra-Fluid Serum Foundation with Sunscreen Broad Spectrum SPF25 033 Apricot Beige; DIORSKIN NUDE AIR Nude Healthy Glow Ultra-Fluid Serum Foundation with Sunscreen Broad Spectrum SPF25 040 Honey Beige; DIORSKIN NUDE AIR Nude Healthy Glow Ultra-Fluid Serum Foundation with Sunscreen Broad Spectrum SPF25 050 Dark Beige; DIORSKIN NUDE AIR Nude Healthy Glow Ultra-Fluid Serum Foundation with Sunscreen Broad Spectrum SPF25 060 Mocha; DIORSKIN NUDE AIR Nude Healthy Glow Ultra-Fluid Serum Foundation with Sunscreen Broad Spectrum SPF25 Ivory 010; DIORSKIN NUDE TAN BB CREME HEALTHY GLOW SKIN-PERFECTING BEAUTY BALM SUNSCREEN BROAD SPECTRUM SPF15 Tint 1; DIORSKIN NUDE TAN BB CREME HEALTHY GLOW SKIN-PERFECTING BEAUTY BALM SUNSCREEN BROAD SPECTRUM SPF15 Tint 2; DIORSNOW BB Creme 010 White Reveal UV Protection Sunscreen Broad Spectrum SPF 50; DIORSNOW BB Creme 020 White Reveal UV Protection Sunscreen Broad Spectrum SPF 50; DIORSNOW Teint Fraicheur Eclaircissant White Reveal Fresh Transparency Liquid Foundation with Sunscreen Broad Spectrum SPF30 tints 010; DIORSNOW Teint Fraicheur Eclaircissant White Reveal Fresh Transparency Liquid Foundation with Sunscreen Broad Spectrum SPF30 tints 020; DIORSNOW Teint Fraicheur Eclaircissant White Reveal Fresh Transparency Liquid Foundation with Sunscreen Broad Spectrum SPF30 tints 021; DIORSNOW UV Shield White Reveal Moisturizing UV Protection Transluscent SPF 50; DIORSNOW White Reveal UVB Protection Sunscreen Pearly White SPF 50; DIORSNOW White Reveal UVB Protection Sunscreen Translucent SPF 50; DIY Booster SPF 30 Facial Serum Unscented; DONGINBI Red Ginseng Moisturizing Sun; DONGINBI Red Ginseng Perfect Sun; DR. BABOR DERMA CELLULAR Detoxifying Vitamin SPF 15; DR. BABOR DERMA Cellular Detoxifying Vitamin SPF 15 CP; DRH Intensive Sun Block; DT Collagen; DTRT Boys Be Bold BB SPF 25; DTRT Get Ready BB SPF 50; Daily Anti-wrinkle Moisturizer; Daily Anti-wrinkle Moisturizing Lotion; Daily Body Moisture Hydrating Complex SPF8; Daily Care Sun; Daily Defense Antioxidant Day Broad Spectrum SPF 30; Daily Defense Broad Spectrum SPF 30; Daily Defense SPF 15; Daily Defense SPF 15 Jafra; Daily Defense SPF 30; Daily Defense SPF 30 Oil Free Fluid; Daily Defense SPF 45; Daily Deflector Moisturizer SPF 20; Daily Face Protectant SPF 30; Daily Facial Moisturizer; Daily Facial Moisturizer SPF 35; Daily Fade Maximum Strength SPF15; Daily Fade SPF15; Daily Moisture Drink SPF 15 Lotion; Daily Moisturizer Broad Spectrum SPF 30; Daily Moisturizer Broad-Spectrum SPF 30; Daily Moisturizer Oil Free; Daily Moisturizing Antioxidant SPF 50; Daily Moisturizing Broad Spectrum SPF15 Sunscreen; Daily Moisturizing Cream SPF 15; Daily Moisturizing SPF 15; Daily Offense SPF 30; Daily Protection Moisturizer With Sunscreen SPF 15; Daily Protection Moisturizing Face Lotion (SPF 30); Daily Radiance Moisturizing Lotion With SPF 15; Daily Wear Moisturizer SPF-20; Daily Wear SPF 20; Dark Skin Defense Concealer Broad Spectrum SPF 15 Jafra; Dark Spot Corrector; Dark Tanning 4 SPF Dry Oil Spray; Dark Tanning Oil; Darphin Cc Cream Instant Multi-benefit Care SPF 35; Darphin Cc Instant Multi-benefit Care Broad Spectrum SPF 35; Day C; Day Care for Hands Broad Spectrum SPF 15 Jafra; Day Cream - 10 SPF; Day Cream Mattifying Hydrator SPF 25; Day Cream Replenishing Hydrator SPF 25; Day Cream SPF 15; Day Creme Broad Spectrum SPF 15; Day Defense Treatment SPF 15; Day Facial Moisturizer With SPF 15; Day Hydrator SPF-15; Day L; Day Lotion - 10 SPF; Day Lotion SPF 15; Day Protection SPF 30; Day Renewal Moisturizing Complex With SPF 20; Daylogic Tinted Daily Moisturizer SPF 30; Daytime Anti-wrinkle Cream; Daytime Firming Lotion; Daytime Fluid; Daytime Smoothing Cream Level 3; Daywear Bb Anti Oxidant Beauty Benefit Broad Spectrum SPF 35; Daywear Plus Multi Protection Tinted Moisturizer SPF 15; Daywear Protective Moisture Creme SPF 15; Daywear Protective Moisture Lotion SPF 15; Daywear SPF 15 - Crm Top; Dd TZ Forte; De-Aging Moisturizing Day Creme With Sunscreen SPF 20; Dear Klairs Midday Blue Sunlotion; Dear Klairs Mochi BB Cushion Pact; Deb Sunprotect SPF 33; Decorte Sheer Brilliance 10; Decorte Sheer Brilliance 20; Decorte Sheer Brilliance 30; Decorte Sheer Brilliance 40; Deep Moisture Renewal With SPF 15; Deep Renewal; Deep Tan Perfecting Makeup Broad Spectrum SPF 25 Merle Norman; Defense Refresh Settingh Mist Broad Spectrum Sunscreen SPF 50 Supergoop; Defense Uv; Defense Zone Kids Broad Spectrum SPF 50 Sunscreen; Deflect Crm; Delicate Beige Expert Finish Makeup Broad Spectrum SPF 25 Merle Norman; Delicate Beige Perfecting Makeup SPF 25 Merle Norman; Dentec Lip Balm; Dentec Lotion; Derma Brilliance Sunscreen SPF 30; Derma Brite SPF 35; Derma Dr.lab Daily Mild Sun; Derma Fade; Derma Refiner Day Skin Perfecting Set; Derma Soleil Dry Sport SPF 30; Derma Soleil Kids Natural Sunblock SPF 30; Derma Soleil Kids Natural Sunblock SPF 45; Derma Soleil Natural Age-Free Facial Sunblock SPF 30; Derma Soleil Natural Sunblock SPF 15; Derma Soleil Natural Sunblock SPF 30; Derma Soleil Natural Sunblock SPF 45; Derma White City Block Anti-pollution Spf40; Dermablend Advanced Fade Cream With Sunscreen and Moisturizing Aha; Dermablend Chromatone Fade Cream With Sunscreen; DermacinRx Skin Moisturizing Ultra SPF 50 Sunscreen; Dermaclair Skin Lightening; Dermajetics Concealing Pencil - SPF 15; Dermajetics Day Defense SPF 10; Dermajetics Hydrating Liquid Foundation SPF-15; Dermajetics Lip Colour SPF 12; Dermajetics Nature's Mirror Balancing Moisturizer Spf4; Dermajetics Nature's Mirror Hydrating Moisturizer SPF 4; Dermajetics Nature's Mirror Oil-free Moisturizer SPF 4; Dermalogica Day Bright; Dermalogica Full Spectrum Block SPF 15; Dermalogica Pigment Relief SPF 15; Dermalogica Protective Self Tan SPF 15; Dermalogica Solar Defense Booster SPF 30; Dermaprot Helioprot Ab SPF 30; Dermaspf Sun Protect SPF 15; Dermaspf Sun Protect SPF 30; Dermaspf Sun Protect SPF 45; Dermatological Sun Protection; Dermatone Moisturising Uva/uvb Creme; Dermatone SPF 23 Lips N Face Protector; Dermatone Skin Protector; Dermatone Skin Protector - Pommade; Dermesse Sunscreen SPF30; Dermesse Sunscreen SPF30 Medium Tint; Dermoessential Sun Mist; Dermoessential Sun Rescue; Desert Bambu Dark Tanning SPF 2; Desert Bambu Facial Sunscreen SPF 30; Desert Bambu Lip Balm SPF 15; Desert Bambu Sunscreen SPF 15; Desert Bambu Sunscreen SPF 30; Desert Bambu Tanning SPF 15; Desert Bambu Tanning SPF 6; Desert Beige Always Color Stay-On Makeup SPF 10; Desert Beige Always Stay-on Makeup SPF 15 Jafra; Desert Beige Perfecting Makeup SPF 25 Merle Norman; Desert Spirit Sunscreen; Deserving Health Natural Age-Free Facial Sunblock; Deserving Health Natural Sunblock; Despigmen Protective 25; Detox & Protect Foundation SPF 15; Detox Healing BB; Detox and Protect Foundation SPF-15; Diamond Radiance Rejuvenating Cream SPF 15; Diamond White Brightening Shield Treatment Cream; Diamond White Matte Finish Sun Protection; Diamond White Oil-Free Brilliant Sun Protection; Dior Addict Lip Glow; Dior Bronze Autobronzant Eclat Du Visage; Dior Bronze Collagen Activ SPF 15 001; Dior Bronze Collagen Activ SPF 15 002; Dior Bronze Collagen Activ SPF 15 003; Dior Bronze Collagen Activ SPF 15 004; Dior Bronze Matte Sunshine; Dior Bronze Voile Teinté; Dior Mains; Dior Snow Uvx2 Ultra-perfecteur De Teint SPF 35 - Beige 02; Dior Snow Uvx2 Ultra-perfecteur De Teint SPF 35 - Mauve 01; DiorSkin Forever Wear Extending Invisible Retouch SPF 8 - 001; DiorSkin Forever Wear Extending Invisible Retouch SPF 8 - 002; DiorSkin Forever Wear Extending Invisible Retouch SPF 8 - 003; DiorSkin Nude 010 Ivory; DiorSkin Nude 012 Porcelain; DiorSkin Nude 020 Beige Praline; DiorSkin Nude 020 Light Beige; DiorSkin Nude 021 Linen; DiorSkin Nude 022 Cameo; DiorSkin Nude 023 Peach; DiorSkin Nude 030 Medium Beige; DiorSkin Nude 031 Sand; DiorSkin Nude 032 Rosy Beige; DiorSkin Nude 032 Sable Rose; DiorSkin Nude 033 The Passion; DiorSkin Nude 040 Golden Caramel; DiorSkin Nude 040 Honey Beige; DiorSkin Nude 050 Cafe Moka; DiorSkin Nude 050 Dark Beige; DiorSkin Nude 051 Dark Sand; DiorSkin Nude 070 Dark Brown; DiorSkin forever Perfect Cushion Perfect Fresh Makeup Everlasting Luminous Matte Finish Pore-Refining Effect with Sunscreen Broad Spectrum SPF35 010; DiorSkin forever Perfect Cushion Perfect Fresh Makeup Everlasting Luminous Matte Finish Pore-Refining Effect with Sunscreen Broad Spectrum SPF35 011; DiorSkin forever Perfect Cushion Perfect Fresh Makeup Everlasting Luminous Matte Finish Pore-Refining Effect with Sunscreen Broad Spectrum SPF35 020; DiorSkin forever Perfect Cushion Perfect Fresh Makeup Everlasting Luminous Matte Finish Pore-Refining Effect with Sunscreen Broad Spectrum SPF35 021; DiorSkin forever Perfect Cushion Perfect Fresh Makeup Everlasting Luminous Matte Finish Pore-Refining Effect with Sunscreen Broad Spectrum SPF35 030; DiorSkin forever Perfect Cushion Perfect Fresh Makeup Everlasting Luminous Matte Finish Pore-Refining Effect with Sunscreen Broad Spectrum SPF35 040; DiorSnow White Reveal Instant Spot Concealer SPF 50 Ivory 010; DiorSnow White Reveal Instant Spot Concealer SPF 50 Light Beige 020; Diorprestige White Collection Satin Brightening Uv Base SPF 50; Diorskin Compact; Diorskin Eclat Doux; Diorskin Fluide; Diorskin Forever; Diorskin Forever & Ever Wear; Diorskin Forever Compact; Diorskin Forever Compact Teint Haute Perfection Tenue Fusionnelle; Diorskin Forever Perfect Makeupeverlasting Wear Pore-refining Effect; Diorskin Forever Poudre Compacte; Diorskin Forever Teint Haute Perfection Tenue Fusionnelle; Diorskin Nude; Diorskin Nude Air; Diorskin Nude Compact Gelée Effet Peau Nue; Diorskin Nude Compact Teint Poudre éclat Effet Peau Nue Nude Glow Versatile Powder Makeup Fps 10 SPF; Diorskin Nude Teint Éclat Effet Peau Nue Nude Skin-glowing Makeup Fps 15 SPF; Diorskin Pure Light SPF 15; Diorskin Sculpt Fond De Teint Raffermissant Lissant; Diorskin Star; Disney Baby Einstein SPF 45 Lotion; Disney Cars Lip Smacker SPF Lip Balm; Disney Classic Characters Lip Smacker SPF Lip Balm; Disney Frozen SPF Lip Smacker Lip Balm; Disney Little Mermaid SPF Lip Smacker Lip Balm; Disney Pirates Of The Caribbean SPF 30 Continuous Spray No Pumping Needed; Disney SPF 30 Continuous Spray No Pumping Needed Fairies; Disney Sun Pals SPF 30 Continuous Spray No Pumping Needed Nemo; Disney Sun Pals SPF 30 Sun Protection Spray; Disney Sun Pals SPF 45 Lotion Mermaid; Disney Sun Pals SPF 45 Lotion Nemo; Disney Sun Pals SPF 45 Lotion Pooh Bear; Divine Lift Foundation SPF; Dml Facial Moisturizer With Sunscreen; Do The Right Thing Smoothing Body Lotion SPF 15; Dolce and Gabbana Daily Moisturizer Broad Spectrum SPF 15; Dolce and Gabbana Perfect Luminous Foundation Broadspectrum SPF 15 (All shades); Dolce and Gabbana The Lift Foundation Almond 150; Dolce and Gabbana The Lift Foundation Amber 148; Dolce and Gabbana The Lift Foundation Beige 78; Dolce and Gabbana The Lift Foundation Bisque 75; Dolce and Gabbana The Lift Foundation Bronze 144; Dolce and Gabbana The Lift Foundation Caramel 110; Dolce and Gabbana The Lift Foundation Classic 60; Dolce and Gabbana The Lift Foundation Creamy 80; Dolce and Gabbana The Lift Foundation Golden Honey 170; Dolce and Gabbana The Lift Foundation Natural Beige 120; Dolce and Gabbana The Lift Foundation Natural Glow 100; Dolce and Gabbana The Lift Foundation Rose Beige 140; Dolce and Gabbana The Lift Foundation Soft Sable 180; Dolce and Gabbana The Lift Foundation Soft Tan 160; Dolce and Gabbana The Lift Foundation Warm Rose 130; Dolce and Gabbana The Primer Sheer Radiance Make Up Base with Sunscreen Broad Spectrum SPF 30; Donald Duck Sun Smacker SPF 24 Tropical Touchdown; Donginbi Red Ginseng Radiance Cushion Bb 21; Donginbi Red Ginseng Radiance Cushion Bb 23; Donna Karan Cashmere Mist Hand Conditioning Creme SPF 15; Donna Karan Soothing Lip Balm SPF 15; Dormer 211 Face Cream SPF 15; Dormer 211 SPF 30; Double Duty Face Protector SPF 15 Jafra; Double Matte Oil Control Makeup SPF 15; Double Perfection Creme Poudre - SPF 15; Double Perfection Fluide SPF 15; Double Wear All Day Glow Bb Moisture Makeup Broad Spectrum SPF 30; Double Wear Nude Water Fresh Makeup Broad Spectrum SPF 30; Double Wear Stay In Place High Cover Concealer Broad Spectrum SPF 35; Double-duty Face Moisturizer SPF 20; Dove Face Day Cream; Dove Face Day Lotion; Dove Fresh Radiance Brightening Eye Cream SPF 8; Dove Fresh Radiance Brightening Moisturizer SPF 15; Dove Pro Age Day Moisturizer; Dove Pro Age Eye Cream; Dpc Pink Aura Cushion No.21; Dpc Pink Aura Cushion No.23; Dr LeE UV ICE SHIELD; Dr MEDECEAN Rising Sun Cover; Dr Myers Water Keep Skins; Dr Young 2p Brightening UV Sun Block SPF50 PA; Dr Young Protect Prevent 2P Blemish Base; Dr Young Protect Prevent 2P Pearl Brightening Balm; Dr Young Protect Prevent Triple Action BB; Dr Young Protect Prevent UV Cut and Ultra Light Sun; Dr. Iaso; Dr. Jart BB Boys Be Bold; Dr. Jart BB Get Ready; Dr. Jart DIS-A-PORE Beauty Balm; Dr. Jart Hydrafull Beauty Balm; Dr. Jart Illuminating BB Brush; Dr. Jart Nourishing Beauty Balm; Dr. Jart RADIANCE Beauty Balm; Dr. Jart Rejuvenating Beauty Balm; Dr. Jart Smart BB 01; Dr. Jart Smart BB 02; Dr. Jart Water Fuse Beauty Balm; Dr. Lewinn by Kinerase Sunscreen Broad Spectrum SPF 15; Dr.Denese SPF 30 Defense Day; Dr.G Brightening Up Sun; Dr.G Brightening Up Sun Stick; Dr.G Water Proof Up Sun; Dr.Jart Air Mesh; Dr.Jart BB Mate Contouring 01; Dr.Jart BB Mate Contouring 02; Dr.Jart BB Mate Contouring 03; Dr.Jart CC Essence Balm 01 Light - Medium; Dr.Jart CC Essence Balm 02 Medium - Deep; Dr.Jart Ceramidin Day Tint; Dr.Jart Dis-A-Pore Beauty Balm 02 MEDIUM-DEEP; Dr.Jart Every Sun Day Illuminating Sunscreen SPF 36; Dr.Jart Every Sun Day Sunscreen SPF 50; Dr.Jart For Men Active BB Block; Dr.althea Aurora Cover Cushion 21; Dr.eslee Sun Matte; Dr.eslee Sun Protection; Dry Oil Antioxidant Sun Protection; Dry Oil Sunscreen; Drymarine Age Control; Durascreen SPF 15-lot; Durascreen SPF 30; Dynamic Defence Concentrate Anti-Ageing Day SPF 15; Dynamic Skin Recovery SPF 30; Dynamic Skin Recovery SPF 50; Dynamic Skin Recovery SPF30; Dynamic Skin SPF 30; Défense Plein Soleil; Délicieuse CRème De Jour à LA Pêche; E NATURE Plantlicious UV sunscreen; EAU THERMALE Avene Antirougeurs DAY Redness-relief Soothing BROAD SPECTRUM SPF 25; EAU THERMALE Avene Hydrance Optimale Hydrating BROAD SPECTRUM SPF 25; EAU THERMALE Avene Moderate Protection BROAD SPECTRUM SPF 20; ECO EARTH POWER Aqua Sun; ECO EARTH POWER Light Sun; ELF Beautifully Bare Foundation Serum Dark Deep With Goji Berry SPF 25; ELF Beautifully Bare Foundation Serum Deep With Goji Berry SPF 25; ELF Beauty Shield SPF 50 Skin Shielding Moisturizer; ELF Broad Spectrum SPF 20 Sunscreen BB Cream Beige; ELF Broad Spectrum SPF 20 Sunscreen BB Cream Buff; ELF Broad Spectrum SPF 20 Sunscreen BB Cream Dark; ELF Broad Spectrum SPF 20 Sunscreen BB Cream Fair; ELF Broad Spectrum SPF 20 Sunscreen BB Cream Medium; ELF Broad Spectrum SPF 20 Sunscreen BB Cream Nude; ELF Broad Spectrum SPF 20 Sunscreen Beige BB Cream; ELF Broad Spectrum SPF 20 Sunscreen Buff BB Cream; ELF Broad Spectrum SPF 20 Sunscreen Dark BB Cream; ELF Broad Spectrum SPF 20 Sunscreen Fair BB Cream; ELF Broad Spectrum SPF 20 Sunscreen Nude BB Cream; ELF Clear SPF 20 Sunscreen Face Primer; ELF Conditioning Lip Balm SPF 15; ELF Daily Hydration Moisturizer SPF 15; ELF Flawless Finish Foundation Oil Free SPF 15 Sunscreen Alabaster; ELF Flawless Finish Foundation Oil Free SPF 15 Sunscreen Light Ivory; ELF Lip Balm SPF 15; ELF Lip Balm SPF 15 Color; ELF SPF 20 Sunscreen Face Primer Clear; ELF SPF 20 Sunscreen UVA/UVB Tinted Moisturizer Almond; ELF SPF 20 Sunscreen UVA/UVB Tinted Moisturizer Beige; ELF SPF 20 Sunscreen UVA/UVB Tinted Moisturizer Espresso; ELF SPF 20 Sunscreen UVA/UVB Tinted Moisturizer Ivory; ELF SPF 20 Sunscreen UVA/UVB Tinted Moisturizer Mocha; ELF SPF 20 Sunscreen UVA/UVB Tinted Moisturizer Nude; ELF SPF 20 Sunscreen UVA/UVB Tinted Moisturizer Porcelain; ELF SPF 20 Sunscreen UVA/UVB Tinted Moisturizer Sand; ELF Super Glossy Lip Shine SPF 15; ELF Tinted Moisturizer SPF 15; ELF Tinted Moisturizer SPF 20; EMINENCE Bright Skin Moisturizer BROAD SPECTRUM SPF 30 SUNSCREEN; EMINENCE Red Currant Protective Moisturizer; ESIKA Extreme Moisturizing SPF 16 (BORGONA SEXY) - BROWN; ESIKA Extreme Moisturizing SPF 16 (CAFE MOCA) - BROWN; ESIKA Extreme Moisturizing SPF 16 (CEREZA HECHIZO) - RED; ESIKA Extreme Moisturizing SPF 16 (CORAL CHIC) - PINK; ESIKA Extreme Moisturizing SPF 16 (FRAMBUESA MANIA) - RED; ESIKA Extreme Moisturizing SPF 16 (FUCSIA CAUTIVANTE) - PURPLE; ESIKA Extreme Moisturizing SPF 16 (FUCSIA GLAM) - PURPLE; ESIKA Extreme Moisturizing SPF 16 (GRANATE SEDUCTOR) - PURPLE; ESIKA Extreme Moisturizing SPF 16 (MAGENTA TRAVIESA) - PURPLE; ESIKA Extreme Moisturizing SPF 16 (MARRON GLAMOUR) - BROWN; ESIKA Extreme Moisturizing SPF 16 (MORADO EXUBERANTE) - PURPLE; ESIKA Extreme Moisturizing SPF 16 (NARANJA PRIMAVERA) - RED; ESIKA Extreme Moisturizing SPF 16 (PIMIENTA CALIENTE) - BROWN; ESIKA Extreme Moisturizing SPF 16 (ROJO DESEO) - RED; ESIKA Extreme Moisturizing SPF 16 (ROJO INTRIGANTE) - RED; ESIKA Extreme Moisturizing SPF 16 (ROJO LUJURIA) - RED; ESIKA Extreme Moisturizing SPF 16 (ROSA DIVA) - RED; ESIKA Extreme Moisturizing SPF 16 (ROSA DULZURA) - PINK; ESIKA Extreme Moisturizing SPF 16 (ROSA ENCANTO) - PINK; ESIKA Extreme Moisturizing SPF 16 (ROSA ESPLENDOR) - PINK; ESIKA Extreme Moisturizing SPF 16 (ROSA ROMANTICA) - PINK; ESIKA HYDRACOLOR 2 IN 1 HIGHLY MOISTURIZING AND Coloring SPF 25 (BORGONA SEXY EXOTIC) - PURPLE; ESIKA HYDRACOLOR 2 IN 1 HIGHLY MOISTURIZING AND Coloring SPF 25 (BORGONA SEXY) - PURPLE; ESIKA HYDRACOLOR 2 IN 1 HIGHLY MOISTURIZING AND Coloring SPF 25 (CANELA NUDE) - ORANGE; ESIKA HYDRACOLOR 2 IN 1 HIGHLY MOISTURIZING AND Coloring SPF 25 (CORAL CHIC EXOTIC) - ORANGE; ESIKA HYDRACOLOR 2 IN 1 HIGHLY MOISTURIZING AND Coloring SPF 25 (CORAL CHIC) - PINK; ESIKA HYDRACOLOR 2 IN 1 HIGHLY MOISTURIZING AND Coloring SPF 25 (CORAL CUARZO) - ORANGE; ESIKA HYDRACOLOR 2 IN 1 HIGHLY MOISTURIZING AND Coloring SPF 25 (CORAL INTENSE) - RED; ESIKA HYDRACOLOR 2 IN 1 HIGHLY MOISTURIZING AND Coloring SPF 25 (DORADO ESENCIAL) - YELLOW; ESIKA HYDRACOLOR 2 IN 1 HIGHLY MOISTURIZING AND Coloring SPF 25 (FRAMBUESA MANIA EXOTIC) - PINK; ESIKA HYDRACOLOR 2 IN 1 HIGHLY MOISTURIZING AND Coloring SPF 25 (FRAMBUESA MANIA) - RED; ESIKA HYDRACOLOR 2 IN 1 HIGHLY MOISTURIZING AND Coloring SPF 25 (FRESA COQUETA) - RED; ESIKA HYDRACOLOR 2 IN 1 HIGHLY MOISTURIZING AND Coloring SPF 25 (FUCSIA AMATISTA) - PINK; ESIKA HYDRACOLOR 2 IN 1 HIGHLY MOISTURIZING AND Coloring SPF 25 (FUCSIA CAUTIVANTE EXOTIC) - PINK; ESIKA HYDRACOLOR 2 IN 1 HIGHLY MOISTURIZING AND Coloring SPF 25 (FUCSIA CAUTIVANTE FEMME) - PINK; ESIKA HYDRACOLOR 2 IN 1 HIGHLY MOISTURIZING AND Coloring SPF 25 (FUCSIA CAUTIVANTE) - PINK; ESIKA HYDRACOLOR 2 IN 1 HIGHLY MOISTURIZING AND Coloring SPF 25 (FUCSIA PRISMA) - RED; ESIKA HYDRACOLOR 2 IN 1 HIGHLY MOISTURIZING AND Coloring SPF 25 (GRANATE SEDUCTOR FEMME) - PURPLE; ESIKA HYDRACOLOR 2 IN 1 HIGHLY MOISTURIZING AND Coloring SPF 25 (GRANATE SEDUCTOR) - PURPLE; ESIKA HYDRACOLOR 2 IN 1 HIGHLY MOISTURIZING AND Coloring SPF 25 (MARRON GLAMOUR EXOTIC) - BROWN; ESIKA HYDRACOLOR 2 IN 1 HIGHLY MOISTURIZING AND Coloring SPF 25 (MARRON GLAMOUR) - BROWN; ESIKA HYDRACOLOR 2 IN 1 HIGHLY MOISTURIZING AND Coloring SPF 25 (MARRON TOPACIO) - BROWN; ESIKA HYDRACOLOR 2 IN 1 HIGHLY MOISTURIZING AND Coloring SPF 25 (MORA GLAM) - BROWN; ESIKA HYDRACOLOR 2 IN 1 HIGHLY MOISTURIZING AND Coloring SPF 25 (NARANJA ESFERA) - ORANGE; ESIKA HYDRACOLOR 2 IN 1 HIGHLY MOISTURIZING AND Coloring SPF 25 (NARANJA PRIMAVERA) - ORANGE; ESIKA HYDRACOLOR 2 IN 1 HIGHLY MOISTURIZING AND Coloring SPF 25 (NUDE INFINITO) - BROWN; ESIKA HYDRACOLOR 2 IN 1 HIGHLY MOISTURIZING AND Coloring SPF 25 (NUDE PRISMA) - ORANGE; ESIKA HYDRACOLOR 2 IN 1 HIGHLY MOISTURIZING AND Coloring SPF 25 (PIMIENTA CALIENTE EXOTIC) - RED; ESIKA HYDRACOLOR 2 IN 1 HIGHLY MOISTURIZING AND Coloring SPF 25 (PIMIENTA CALIENTE FEMME) - RED; ESIKA HYDRACOLOR 2 IN 1 HIGHLY MOISTURIZING AND Coloring SPF 25 (PIMIENTA CALIENTE) - BROWN; ESIKA HYDRACOLOR 2 IN 1 HIGHLY MOISTURIZING AND Coloring SPF 25 (ROJO DESEO EXOTIC) - RED; ESIKA HYDRACOLOR 2 IN 1 HIGHLY MOISTURIZING AND Coloring SPF 25 (ROJO DESEO) - RED; ESIKA HYDRACOLOR 2 IN 1 HIGHLY MOISTURIZING AND Coloring SPF 25 (ROJO ESIKA) - RED; ESIKA HYDRACOLOR 2 IN 1 HIGHLY MOISTURIZING AND Coloring SPF 25 (ROJO INTRIGANTE FEMME) - RED; ESIKA HYDRACOLOR 2 IN 1 HIGHLY MOISTURIZING AND Coloring SPF 25 (ROJO INTRIGANTE) - RED; ESIKA HYDRACOLOR 2 IN 1 HIGHLY MOISTURIZING AND Coloring SPF 25 (ROJO LUJURIA) - RED; ESIKA HYDRACOLOR 2 IN 1 HIGHLY MOISTURIZING AND Coloring SPF 25 (ROSA DULZURA) - PINK; ESIKA HYDRACOLOR 2 IN 1 HIGHLY MOISTURIZING AND Coloring SPF 25 (ROSA ENCANTO EXOTIC) - PINK; ESIKA HYDRACOLOR 2 IN 1 HIGHLY MOISTURIZING AND Coloring SPF 25 (ROSA ENCANTO FEMME) - PINK; ESIKA HYDRACOLOR 2 IN 1 HIGHLY MOISTURIZING AND Coloring SPF 25 (ROSA ENCANTO) - PINK; ESIKA HYDRACOLOR 2 IN 1 HIGHLY MOISTURIZING AND Coloring SPF 25 (ROSA GEOMETRIC) - PINK; ESIKA HYDRACOLOR 2 IN 1 HIGHLY MOISTURIZING AND Coloring SPF 25 (ROSA ROMANTICA FEMME) - PINK; ESIKA HYDRACOLOR 2 IN 1 HIGHLY MOISTURIZING AND Coloring SPF 25 (ROSA ROMANTICA) - PINK; ESIKA HYDRACOLOR 2 IN 1 Highly Moisturizing and coloring SPF 25 (BORGONA SEXY) - PURPLE; ESIKA HYDRACOLOR 2 IN 1 Highly Moisturizing and coloring SPF 25 (CANELA NUDE) - ORANGE; ESIKA HYDRACOLOR 2 IN 1 Highly Moisturizing and coloring SPF 25 (CORAL CHIC) - PINK; ESIKA HYDRACOLOR 2 IN 1 Highly Moisturizing and coloring SPF 25 (CORAL INTENSE) - RED; ESIKA HYDRACOLOR 2 IN 1 Highly Moisturizing and coloring SPF 25 (FRAMBUESA MANIA) - RED; ESIKA HYDRACOLOR 2 IN 1 Highly Moisturizing and coloring SPF 25 (FRESA COQUETA) - RED; ESIKA HYDRACOLOR 2 IN 1 Highly Moisturizing and coloring SPF 25 (FUCSIA CAUTIVANTE FEMME) - PINK; ESIKA HYDRACOLOR 2 IN 1 Highly Moisturizing and coloring SPF 25 (FUCSIA CAUTIVANTE) - PINK; ESIKA HYDRACOLOR 2 IN 1 Highly Moisturizing and coloring SPF 25 (GRANATE SEDUCTOR FEMME) - PURPLE; ESIKA HYDRACOLOR 2 IN 1 Highly Moisturizing and coloring SPF 25 (GRANATE SEDUCTOR) - PURPLE; ESIKA HYDRACOLOR 2 IN 1 Highly Moisturizing and coloring SPF 25 (MARRON GLAMOUR) - BROWN; ESIKA HYDRACOLOR 2 IN 1 Highly Moisturizing and coloring SPF 25 (MORA GLAM) - BROWN; ESIKA HYDRACOLOR 2 IN 1 Highly Moisturizing and coloring SPF 25 (NARANJA PRIMAVERA) - ORANGE; ESIKA HYDRACOLOR 2 IN 1 Highly Moisturizing and coloring SPF 25 (PIMIENTA CALIENTE FEMME) - RED; ESIKA HYDRACOLOR 2 IN 1 Highly Moisturizing and coloring SPF 25 (PIMIENTA CALIENTE) - BROWN; ESIKA HYDRACOLOR 2 IN 1 Highly Moisturizing and coloring SPF 25 (ROJO DESEO) - RED; ESIKA HYDRACOLOR 2 IN 1 Highly Moisturizing and coloring SPF 25 (ROJO INTRIGANTE FEMME) - RED; ESIKA HYDRACOLOR 2 IN 1 Highly Moisturizing and coloring SPF 25 (ROJO INTRIGANTE) - RED; ESIKA HYDRACOLOR 2 IN 1 Highly Moisturizing and coloring SPF 25 (ROJO LUJURIA) - RED; ESIKA HYDRACOLOR 2 IN 1 Highly Moisturizing and coloring SPF 25 (ROSA DULZURA) - PINK; ESIKA HYDRACOLOR 2 IN 1 Highly Moisturizing and coloring SPF 25 (ROSA ENCANTO FEMME) - PINK; ESIKA HYDRACOLOR 2 IN 1 Highly Moisturizing and coloring SPF 25 (ROSA ENCANTO) - PINK; ESIKA HYDRACOLOR 2 IN 1 Highly Moisturizing and coloring SPF 25 (ROSA ROMANTICA FEMME) - PINK; ESIKA HYDRACOLOR 2 IN 1 Highly Moisturizing and coloring SPF 25 (ROSA ROMANTICA) - PINK; ESIKA NATURAL CARE CONCHA DE NACAR AND ROSA MOSQUETA facial FPS 15; ESIKA PRO ADVANCE LASTING Long-lasting and comfort SPF 20; ESIKA PRO ADVANCE LASTING Long-lasting and comfort SPF 20 (BORGONA SWEET) - PINK; ESIKA PRO ADVANCE LASTING Long-lasting and comfort SPF 20 (FUCSIA DELIRIO) - PINK; ESIKA PRO ADVANCE LASTING Long-lasting and comfort SPF 20 (FUCSIA SUBLIME) - PINK; ESIKA PRO ADVANCE LASTING Long-lasting and comfort SPF 20 (FUCSIA TENTACION) - PINK; ESIKA PRO ADVANCE LASTING Long-lasting and comfort SPF 20 (MARRON BAMBU) - BROWN; ESIKA PRO ADVANCE LASTING Long-lasting and comfort SPF 20 (MARRON FANATIC) - RED; ESIKA PRO ADVANCE LASTING Long-lasting and comfort SPF 20 (MARRON HAVANA) - BROWN; ESIKA PRO ADVANCE LASTING Long-lasting and comfort SPF 20 (NARANJA OBSESION) - ORANGE; ESIKA PRO ADVANCE LASTING Long-lasting and comfort SPF 20 (NATURAL DUNE) - PINK; ESIKA PRO ADVANCE LASTING Long-lasting and comfort SPF 20 (ROJO FIESTA) - RED; ESIKA PRO ADVANCE LASTING Long-lasting and comfort SPF 20 (ROJO PASION) - RED; ESIKA PRO ADVANCE LASTING Long-lasting and comfort SPF 20 (ROSA FIORELLE) - PINK; ESIKA PRO ADVANCE LASTING Long-lasting and comfort SPF 20 (VINO DESEO) - PURPLE; ESIKA PRO HIDRACOLOR 3 IN 1 Moisturizing, color and perfecting effect SPF 25; ESIKA PRO HIDRACOLOR 3 IN 1 Moisturizing, color and perfecting effect SPF 25 (BORGONA SEXY) - PURPLE; ESIKA PRO HIDRACOLOR 3 IN 1 Moisturizing, color and perfecting effect SPF 25 (BRONCE METALLIC) - BROWN; ESIKA PRO HIDRACOLOR 3 IN 1 Moisturizing, color and perfecting effect SPF 25 (CORAL CHIC) - PINK; ESIKA PRO HIDRACOLOR 3 IN 1 Moisturizing, color and perfecting effect SPF 25 (FRESA HOT) - PINK; ESIKA PRO HIDRACOLOR 3 IN 1 Moisturizing, color and perfecting effect SPF 25 (FUCSIA CAUTIVANTE) - PINK; ESIKA PRO HIDRACOLOR 3 IN 1 Moisturizing, color and perfecting effect SPF 25 (FUCSIA INTENSE) - PINK; ESIKA PRO HIDRACOLOR 3 IN 1 Moisturizing, color and perfecting effect SPF 25 (GRANATE SEDUCTOR) - PURPLE; ESIKA PRO HIDRACOLOR 3 IN 1 Moisturizing, color and perfecting effect SPF 25 (MARRON TOPACIO) - BROWN; ESIKA PRO HIDRACOLOR 3 IN 1 Moisturizing, color and perfecting effect SPF 25 (MORA ATREVIDA) - PURPLE; ESIKA PRO HIDRACOLOR 3 IN 1 Moisturizing, color and perfecting effect SPF 25 (MORA GLAM) - PURPLE; ESIKA PRO HIDRACOLOR 3 IN 1 Moisturizing, color and perfecting effect SPF 25 (NARANJA CITRICO) - ORANGE; ESIKA PRO HIDRACOLOR 3 IN 1 Moisturizing, color and perfecting effect SPF 25 (NARANJA ESFERA) - ORANGE; ESIKA PRO HIDRACOLOR 3 IN 1 Moisturizing, color and perfecting effect SPF 25 (NUDE MOCCHA) - ORANGE; ESIKA PRO HIDRACOLOR 3 IN 1 Moisturizing, color and perfecting effect SPF 25 (NUDE PUNCH) - ORANGE; ESIKA PRO HIDRACOLOR 3 IN 1 Moisturizing, color and perfecting effect SPF 25 (NUDE SAVANNA) - ORANGE; ESIKA PRO HIDRACOLOR 3 IN 1 Moisturizing, color and perfecting effect SPF 25 (PEACH NUDE) - BROWN; ESIKA PRO HIDRACOLOR 3 IN 1 Moisturizing, color and perfecting effect SPF 25 (PIMIENTA CALIENTE) - BROWN; ESIKA PRO HIDRACOLOR 3 IN 1 Moisturizing, color and perfecting effect SPF 25 (ROJO DESEO) - RED; ESIKA PRO HIDRACOLOR 3 IN 1 Moisturizing, color and perfecting effect SPF 25 (ROJO ESIKA) - RED; ESIKA PRO HIDRACOLOR 3 IN 1 Moisturizing, color and perfecting effect SPF 25 (ROJO SENSUAL) - RED; ESIKA PRO HIDRACOLOR 3 IN 1 Moisturizing, color and perfecting effect SPF 25 (ROJO TROPICAL) - RED; ESIKA PRO HIDRACOLOR 3 IN 1 Moisturizing, color and perfecting effect SPF 25 (ROSA ENCANTO) - PINK; ESIKA PRO HIDRACOLOR 3 IN 1 Moisturizing, color and perfecting effect SPF 25 (ROSA GEOMETRIC) - PINK; ESIKA PRO HIDRACOLOR 3 IN 1 Moisturizing, color and perfecting effect SPF 25 (ROSA NUDE) - PINK; ESIKA PRO MULTI-GLOSS Dual with triple gloss effect SPF 15 (AMBAR) - BROWN; ESIKA PRO MULTI-GLOSS Dual with triple gloss effect SPF 15 (CEREZA) - RED; ESIKA PRO MULTI-GLOSS Dual with triple gloss effect SPF 15 (CHAMPAGE) - BEIGE; ESIKA PRO MULTI-GLOSS Dual with triple gloss effect SPF 15 (COBRE) - ORANGE; ESIKA PRO MULTI-GLOSS Dual with triple gloss effect SPF 15 (DIAMANTE ROSA) - PINK; ESIKA PRO MULTI-GLOSS Dual with triple gloss effect SPF 15 (FRESA) - RED; ESIKA PRO MULTI-GLOSS Dual with triple gloss effect SPF 15 (FUCSIA) - PURPLE; ESIKA PRO MULTI-GLOSS Dual with triple gloss effect SPF 15 (MELON) - PINK; ESIKA PRO MULTI-GLOSS Dual with triple gloss effect SPF 15 (PIMIENTA CALIENTE) - BROWN; ESIKA PRO MULTI-GLOSS Dual with triple gloss effect SPF 15 (ROSA) - RED; ESIKA PRO MULTI-GLOSS Dual with triple gloss effect SPF 15 (RUBI) - RED; ESIKA PRO MULTI-GLOSS Dual with triple gloss effect SPF 15 (VINO) - BROWN; ESIKA Perfect Match SPF 20 CEREZA DEEP; ESIKA Perfect Match SPF 20 CHERRY CLASS; ESIKA Perfect Match SPF 20 COFFEE SWEET; ESIKA Perfect Match SPF 20 CORAL SEDUCTION; ESIKA Perfect Match SPF 20 DURAZNO GLAM; ESIKA Perfect Match SPF 20 FUCSIA FEMME; ESIKA Perfect Match SPF 20 RED SUPREME; ESIKA Perfect Match SPF 20 ROSA BELLE; ESIKA Perfect Match SPF 20 ROSA CANDY; ESIKA Perfect Match SPF 20 VINO MIDNIGHT; ESIKA Silk Skin Face SPF 9; ESIKA Silk Skin SPF 9 (terracota) - BEIGE; ESIKA Silk Skin SPF 9 (translucido) - BEIGE; ETHYLHEXYL METHOXYCINNAMATE Cream; EXTRASHADE Daily Defense Hydrating Sunscreen SPF 30; Earth Radiance Foundation Broad Spectrum SPF 20 - Tawny JAFRA; Earth and Vine BB Broad Spectrum SPF 15 Sunscreen; Easy Block Spray Lotion SPF 30+; Easydew Daily Baby Care Sun; Easydew Daily Fresh Mild Sun; Easydew Daily Water Proof Sun; Easydew EX Fresh Mild SunScreen SPF50 PLUS PA PLUS PLUS PLUS; Easydew EX Mineral BB SPF45 PA PLUS PLUS; Eau Thermale Avene Hydrating Sunscreen Balm SPF 50 Plus; Eco Lips Lip Balm; Eco Lips Lip Balm SPF 30; Eco Soul Luminous Photoshop Pact 21 Light Beige; Eco Soul Luminous Photoshop Pact 23 Natural Beige; Eco Soul Power Proof Cooling BB Cushion 01 Aqua Beige; Eco Soul Power Proof Cooling BB Cushion 02 Neutral Beige; Eco Soul Spau BB 01 Light Beige; Eco Soul Spau BB 02 Natural Beige; Eco Soul Spau BB Cake 01 Light Beige; Eco Soul Spau BB Cake 02 Natural Beige; Eco Soul Spau BB Cushion 01 Light Beige; Eco Soul Spau BB Cushion 02 Natural Beige; Ecran Solaire Fps 30 Lot; Ecran Soleil; Ecran Soleil - Crm Top; Ecran Soleil SPF 30; Effet Parfait Hydratess Long-lasting Intense Moisturizing SPF 20 (almond) - Brown; Effet Parfait Hydratess Long-lasting Intense Moisturizing SPF 20 (amour) - Red; Effet Parfait Hydratess Long-lasting Intense Moisturizing SPF 20 (cherry Blossom) - Red; Effet Parfait Hydratess Long-lasting Intense Moisturizing SPF 20 (chocolat) - Brown; Effet Parfait Hydratess Long-lasting Intense Moisturizing SPF 20 (frenesie) - Pink; Effet Parfait Hydratess Long-lasting Intense Moisturizing SPF 20 (fucsia) - Purple; Effet Parfait Hydratess Long-lasting Intense Moisturizing SPF 20 (lily Beige) - Pink; Effet Parfait Hydratess Long-lasting Intense Moisturizing SPF 20 (malve) - Red; Effet Parfait Hydratess Long-lasting Intense Moisturizing SPF 20 (mandarine) - Orange; Effet Parfait Hydratess Long-lasting Intense Moisturizing SPF 20 (marron Glace) - Brown; Effet Parfait Hydratess Long-lasting Intense Moisturizing SPF 20 (moka) - Pink; Effet Parfait Hydratess Long-lasting Intense Moisturizing SPF 20 (nude Intime) - Pink; Effet Parfait Hydratess Long-lasting Intense Moisturizing SPF 20 (nude) - Pink; Effet Parfait Hydratess Long-lasting Intense Moisturizing SPF 20 (red Extassy) - Red; Effet Parfait Hydratess Long-lasting Intense Moisturizing SPF 20 (riche Pink) - Red; Effet Parfait Hydratess Long-lasting Intense Moisturizing SPF 20 (romance) - Pink; Effet Parfait Hydratess Long-lasting Intense Moisturizing SPF 20 (rose Clasique) - Pink; Effet Parfait Hydratess Long-lasting Intense Moisturizing SPF 20 (rose Natural) - Pink; Effet Parfait Hydratess Long-lasting Intense Moisturizing SPF 20 (rouge Intense) - Red; Effet Parfait Hydratess Long-lasting Intense Moisturizing SPF 20 (soleil) - Orange; Effet Parfait Hydratess Long-lasting Intense Moisturizing SPF 20 (tea Rose) - Pink; Effet Parfait Hydratess Long-lasting Intense Moisturizing SPF 20 (terre) - Brown; Effet Parfait Hydratess Long-lasting Intense Moisturizing SPF 20 (tulip) - Pink; Effet Parfait Hydratess Long-lasting Intense Moisturizing SPF 20 (vin Amant) - Purple; Effet Parfait Hydratess Long-lasting Intense Moisturizing SPF 20 (vin) - Brown; Effet Parfait Natural Finish Moisturizing Foundation SPF 25; Effet Parfait Rouge Amplifier Amplifying SPF 15 (belle Nude) - Beige; Effet Parfait Rouge Amplifier Amplifying SPF 15 (bourgogne Vif) - Pink; Effet Parfait Rouge Amplifier Amplifying SPF 15 (carmine) - Red; Effet Parfait Rouge Amplifier Amplifying SPF 15 (coral Maximum) - Orange; Effet Parfait Rouge Amplifier Amplifying SPF 15 (fucsia Desir) - Brown; Effet Parfait Rouge Amplifier Amplifying SPF 15 (fucsia Passion) - Purple; Effet Parfait Rouge Amplifier Amplifying SPF 15 (fucsia Splendide) - Pink; Effet Parfait Rouge Amplifier Amplifying SPF 15 (genuine Rouge) - Red; Effet Parfait Rouge Amplifier Amplifying SPF 15 (malbec) - Brown; Effet Parfait Rouge Amplifier Amplifying SPF 15 (marron Ilimitee) - Brown; Effet Parfait Rouge Amplifier Amplifying SPF 15 (mystic Rose) - Pink; Effet Parfait Rouge Amplifier Amplifying SPF 15 (romance) - Pink; Effet Parfait Rouge Amplifier Amplifying SPF 15 (rose Champagne) - Pink; Effet Parfait Rouge Amplifier Amplifying SPF 15 (rose Damour) - Pink; Effet Parfait Rouge Amplifier Amplifying SPF 15 (rose Tentation) - Pink; Effet Parfait Rouge Amplifier Amplifying SPF 15 (rouge Grandiose) - Red; Effet Parfait Rouge Amplifier Amplifying SPF 15 (rouge Provocation) - Red; Effet Parfait Rouge Amplifier Amplifying SPF 15 (rouge Rubi) - Red; Effet Parfait Rouge Amplifier Amplifying SPF 15 (salmon Essential) - Orange; Effet Parfait Rouge Amplifier Amplifying SPF 15 (sobriete) - Brown; Effet Parfait Rouge Amplifier Amplifying SPF 15 (vin Chic) - Brown; Effet Parfait Rouge Amplifier Amplifying SPF 15 (violet Velvet) - Purple; Egf Uv Shield; Eight Hour Cream Intensive Daily Moisturizer For Face SPF 15; Eight Hour Cream Nourishing Lip Balm SPF 20; Eight Hour Cream Sun Defense for Face SPF 50 Sunscreen; Eight Hour Cream Targeted Sun Defense SPF 50; Elastology Age Blocker; Elastology Age Blocker SPF 25; Elemental Resestance Broad Spectrum SPF 50 Vertra; Elemental Resistance Broad Spectrum SPF 50 Vertra; Elf Bb SPF-20; Elf Tinted Moisturizer SPF-20; Elixir FINE Sunscreen Broad Spectrum SPF 15; Elizabeth Arden Ceramide Plump Perfect Eye Moisture Cream-SPF 15; Elizabeth Arden Ceramide Plump Perfect Lip Moisture Cream-spf30; Elizabeth Arden Ceramide Plump Perfect Makeup SPF 15; Elizabeth Arden Ceramide Plump Perfect Moisture Cream - SPF 15; Elizabeth Arden Extreme Conditioning Cream; Elizabeth Arden First Defense Protective Cream; Elizabeth Arden First Defense Protective Lotion; Elizabeth Arden Flawless Finish Dual Perfection Makeup; Elizabeth Arden Flawless Finish Radiant Moisture Makeup; Elizabeth Arden Intervene Makeup SPF 15 Octinoxate Lotion; Elizabeth Arden Intervene Radiance Boosting Moisture Lotion SPF 15; Elizabeth Arden Let There Be Light Radiant Skin Lotion; Elizabeth Arden Let There Be Light Radiant Skin Powder Compact; Elizabeth Arden Moisture Shield SPF 15; Elizabeth Arden Nourishing Lip Balm SPF 20; Elizabeth Arden Prevage Anti-aging Foundation Broad Spectrum Sunscreen SPF 30; Elizabeth Arden Pure Finish Mineral Tinted Moisture Cream SPF 15; Elizabeth Arden Sheer Lights Illuminating Tinted Moisturizer; Elta Block SPF 32; Elta MD UV Aero SPF45; Elta MD UV Clear SPF46; Elta MD UV SPF46 SPF46; EltaMD UV Clear Tinted; EltaMD UV Daily SPF 40; EltaMD UV Daily Tinted; EltaMD UV Facial SPF 30; EltaMD UV Lip Balm; EltaMD UV SPF 30; EltaMD UV Shield SPF 45; EltaMD UV Sport SPF 50; Eltamd Skincare Uv Daily SPF 40; Eltamd Skincare Uv Defense SPF 45; Eltamd Skincare Uv Facial SPF 30; Eltamd Skincare Uv Lotion SPF 30; Eltamd Skincare Uv Sport SPF 50; Embellisseur Solaire Corps/cheveux - Liq 4%; Emmune Flobe Effect Cushion; Emulsion Bronzante - Eml Top 4%; Ener-C Moisturizing Lotion SPF 30; Energizing Pomegranate Moisturizer SPF 15; Enesti Multiple Essence BB Cream; Enesti UV-Cut Sunblock; Enhanced Facial Moisturizer; Epicuren Discovery SPF 30; Equate Anti Wrinkle SPF 15; Equate Beauty All-daymoisturizing Broad Spectrumspf 15 Sunscreen; Equate Beauty Day Cream; Equate Face; Equate Moisturizing Lotion SPF 15; Equate Sport Sunscreen Lotion SPF/fps 30; Equate Sunscreen Lotion SPF/fps 30; Equate Sunscreen Lotion SPF/fps 4; Equilibre-hydra-city Fps 15-SPF 15; Equitance Sunscreen Broad Spectrum SPF 36; Erborian - Bb Creme Au Ginseng Caramel Spf20; Erborian - Bb Creme Au Ginseng Clair SPF 20; Erborian - Bb Creme Au Ginseng Dore SPF 20; Erborian - Bb Creme Nude Spf20; Erborian - Cc Creme High Definition SPF 25; Erborian - Cc Creme High Definition Spf25 Clair; Erborian BB Creme Au Ginseng; Erborian BB Creme Au Ginseng Dore; Erno Laszlo Absolute Finish SPF 15; Erno Laszlo Hydraphel Emulsion SPF 15; Erno Laszlo Moisturizing Antioxidant Complex SPF 15; Erno Laszlo R.E.M. SPF 30; Erno Laszlo Solar Exchange Sun Balm SPF 25; Erysol; Esika 3-IN-1 Pro Make Up Foundation SPF 20 Base De Maquillaje Para Rostro 3-EN-1 Pro Fps 20 (beige 1) - Beige; Esika 3-IN-1 Pro Make Up Foundation SPF 20 Base De Maquillaje Para Rostro 3-EN-1 Pro Fps 20 (beige 2) - Beige; Esika 3-IN-1 Pro Make Up Foundation SPF 20 Base De Maquillaje Para Rostro 3-EN-1 Pro Fps 20 (beige 3) - Beige; Esika 3-IN-1 Pro Make Up Foundation SPF 20 Base De Maquillaje Para Rostro 3-EN-1 Pro Fps 20 (beige 4) - Beige; Esika 3-IN-1 Pro Make Up Foundation SPF 20 Base De Maquillaje Para Rostro 3-EN-1 Pro Fps 20 (beige 5) - Beige; Esika 3-IN-1 Pro Make Up Foundation SPF 20 Base De Maquillaje Para Rostro 3-EN-1 Pro Fps 20 (beige 6) - Beige; Esika 3-IN-1 Pro Make Up Foundation SPF 20 Base De Maquillaje Para Rostro 3-EN-1 Pro Fps 20 (rose 1) - Rose; Esika 3-IN-1 Pro Make Up Foundation SPF 20 Base De Maquillaje Para Rostro 3-EN-1 Pro Fps 20 (rose 2) - Rose; Esika 3-IN-1 Pro Make Up Foundation SPF 20 Base De Maquillaje Para Rostro 3-EN-1 Pro Fps 20 (rose 3) - Rose; Esika 3-IN-1 Pro Make Up Foundation SPF 20 Base De Maquillaje Para Rostro 3-EN-1 Pro Fps 20 (rose 4) - Rose; Esika 3-IN-1 Pro Make Up Foundation SPF 20 Base De Maquillaje Para Rostro 3-EN-1 Pro Fps 20 (rose 5) - Rose; Esika 3-IN-1 Pro Make Up Foundation SPF 20 Base De Maquillaje Para Rostro 3-EN-1 Pro Fps 20 (rose 6) - Rose; Esika 3-IN-1 Pro Makeup Foundation SPF 20; Esika Core Sensations; Esika Extreme Moisturizing SPF 16; Esika Hd Color High Definition Color SPF 20; Esika Hd Color High Definition Color SPF 20 (hd Cafe Habano) - Brown; Esika Hd Color High Definition Color SPF 20 (hd Ciruela Glam) - Red; Esika Hd Color High Definition Color SPF 20 (hd Coral Ensueno) - Red; Esika Hd Color High Definition Color SPF 20 (hd Durazno Nude) - Pink; Esika Hd Color High Definition Color SPF 20 (hd Frambuesa Encanto) - Red; Esika Hd Color High Definition Color SPF 20 (hd Fucsia Vibrante) - Pink; Esika Hd Color High Definition Color SPF 20 (hd Magenta Sweet) - Purple; Esika Hd Color High Definition Color SPF 20 (hd Marron Toscana) - Brown; Esika Hd Color High Definition Color SPF 20 (hd Melon Intense) - Pink; Esika Hd Color High Definition Color SPF 20 (hd Naranja Provocacion) - Orange; Esika Hd Color High Definition Color SPF 20 (hd Pimienta Caliente) - Brown; Esika Hd Color High Definition Color SPF 20 (hd Rojo Glam) - Red; Esika Hd Color High Definition Color SPF 20 (hd Rosa Viva) - Pink; Esika Hd Color High Definition Color SPF 20 (hd Rosado Chic) - Pink; Esika Hd Color High Definition Color SPF 20 (hd Vino Cautivante) - Red; Esika Hydracolor 2 In 1 Highly Moisturizing And Coloring Spf 25; Esika Hydracolor 2 In 1 Highly Moisturizing and Coloring SPF 25; Esika Hydracolor 2 In 1 Highly Moisturizing and Coloring SPF 25 (borgona Sexy) - Purple; Esika Hydracolor 2 In 1 Highly Moisturizing and Coloring SPF 25 (coral Chic) - Pink; Esika Hydracolor 2 In 1 Highly Moisturizing and Coloring SPF 25 (frambuesa Mania) - Red; Esika Hydracolor 2 In 1 Highly Moisturizing and Coloring SPF 25 (fucsia Cautivante) - Pink; Esika Hydracolor 2 In 1 Highly Moisturizing and Coloring SPF 25 (granate Seductor) - Purple; Esika Hydracolor 2 In 1 Highly Moisturizing and Coloring SPF 25 (marron Glamour) - Brown; Esika Hydracolor 2 In 1 Highly Moisturizing and Coloring SPF 25 (naranja Primavera) - Orange; Esika Hydracolor 2 In 1 Highly Moisturizing and Coloring SPF 25 (pimienta Caliente) - Brown; Esika Hydracolor 2 In 1 Highly Moisturizing and Coloring SPF 25 (rojo Deseo) - Red; Esika Hydracolor 2 In 1 Highly Moisturizing and Coloring SPF 25 (rojo Intrigante) - Red; Esika Hydracolor 2 In 1 Highly Moisturizing and Coloring SPF 25 (rojo Lujuria) - Red; Esika Hydracolor 2 In 1 Highly Moisturizing and Coloring SPF 25 (rosa Dulzura) - Pink; Esika Hydracolor 2 In 1 Highly Moisturizing and Coloring SPF 25 (rosa Encanto) - Pink; Esika Hydracolor 2 In 1 Highly Moisturizing and Coloring SPF 25 (rosa Romantica) - Pink; Esika Hydracolor 2 In 1 SPF 25; Esika Hydracolor 2 In 1 SPF 25 (borgona Sexy Exotic) - Purple; Esika Hydracolor 2 In 1 SPF 25 (borgona Sexy) - Purple; Esika Hydracolor 2 In 1 SPF 25 (canela Nude) - Orange; Esika Hydracolor 2 In 1 SPF 25 (coral Chic Exotic) - Pink; Esika Hydracolor 2 In 1 SPF 25 (coral Chic) - Pink; Esika Hydracolor 2 In 1 SPF 25 (coral Intense) - Red; Esika Hydracolor 2 In 1 SPF 25 (coral Quarzo) - Orange; Esika Hydracolor 2 In 1 SPF 25 (dorado Esencial) - Yellow; Esika Hydracolor 2 In 1 SPF 25 (frambuesa Mania Exotic) - Red; Esika Hydracolor 2 In 1 SPF 25 (frambuesa Mania) - Red; Esika Hydracolor 2 In 1 SPF 25 (fresa Coqueta) - Red; Esika Hydracolor 2 In 1 SPF 25 (fucsia Amatista) - Red; Esika Hydracolor 2 In 1 SPF 25 (fucsia Cautivante Exotic) - Pink; Esika Hydracolor 2 In 1 SPF 25 (fucsia Cautivante Femme) - Pink; Esika Hydracolor 2 In 1 SPF 25 (fucsia Cautivante) - Pink; Esika Hydracolor 2 In 1 SPF 25 (fucsia Prisma) - Red; Esika Hydracolor 2 In 1 SPF 25 (granate Seductor Femme) - Purple; Esika Hydracolor 2 In 1 SPF 25 (granate Seductor) - Purple; Esika Hydracolor 2 In 1 SPF 25 (marron Glamor Exotic) - Brown; Esika Hydracolor 2 In 1 SPF 25 (marron Glamour) - Brown; Esika Hydracolor 2 In 1 SPF 25 (marron Topacio) - Brown; Esika Hydracolor 2 In 1 SPF 25 (mora Glam) - Brown; Esika Hydracolor 2 In 1 SPF 25 (naranja Esfera) - Orange; Esika Hydracolor 2 In 1 SPF 25 (naranja Primavera) - Orange; Esika Hydracolor 2 In 1 SPF 25 (nude Infinito) - Brown; Esika Hydracolor 2 In 1 SPF 25 (nude Prisma) - Beige; Esika Hydracolor 2 In 1 SPF 25 (pimienta Caliente Exotic) - Brown; Esika Hydracolor 2 In 1 SPF 25 (pimienta Caliente Femme) - Red; Esika Hydracolor 2 In 1 SPF 25 (pimienta Caliente) - Brown; Esika Hydracolor 2 In 1 SPF 25 (rojo Deseo Exotic) - Brown; Esika Hydracolor 2 In 1 SPF 25 (rojo Deseo) - Red; Esika Hydracolor 2 In 1 SPF 25 (rojo Esika) - Orange; Esika Hydracolor 2 In 1 SPF 25 (rojo Intrigante Femme) - Red; Esika Hydracolor 2 In 1 SPF 25 (rojo Intrigante) - Red; Esika Hydracolor 2 In 1 SPF 25 (rojo Lujuria) - Red; Esika Hydracolor 2 In 1 SPF 25 (rosa Dulzura) - Pink; Esika Hydracolor 2 In 1 SPF 25 (rosa Encanto Exotic) - Pink; Esika Hydracolor 2 In 1 SPF 25 (rosa Encanto Femme) - Pink; Esika Hydracolor 2 In 1 SPF 25 (rosa Encanto) - Pink; Esika Hydracolor 2 In 1 SPF 25 (rosa Geometric) - Pink; Esika Hydracolor 2 In 1 SPF 25 (rosa Romantica Femme) - Pink; Esika Hydracolor 2 In 1 SPF 25 (rosa Romantica) - Pink; Esika Hydrated Face Makeup Foundation SPF 15; Esika Hydro-nutrative Foundation SPF 13; Esika Maximum Color Lipstick SPF 18; Esika Maximum Color SPF 18; Esika Natural Care; Esika PRO HD COLOR MATTE HIGH DEFINITION COLOR SPF 20 FRAMBUESA GLAM MATE - RED; Esika PRO HD COLOR MATTE HIGH DEFINITION COLOR SPF 20 FRESA PROFUNDO MATE - RED; Esika PRO HD COLOR MATTE HIGH DEFINITION COLOR SPF 20 FUCSIA GALA MATE - PURPLE; Esika PRO HD COLOR MATTE HIGH DEFINITION COLOR SPF 20 FUCSIA PINK MATE - PURPLE; Esika PRO HD COLOR MATTE HIGH DEFINITION COLOR SPF 20 FUCSIA VIBRANTE MATE - PURPLE; Esika PRO HD COLOR MATTE HIGH DEFINITION COLOR SPF 20 PIMIENTA CALIENTE MATE - BROWN; Esika PRO HD COLOR MATTE HIGH DEFINITION COLOR SPF 20 ROJO PASION MATE - RED; Esika PRO HD COLOR MATTE HIGH DEFINITION COLOR SPF 20 ROSA DESEO MATE - PINK; Esika PRO HD COLOR MATTE HIGH DEFINITION COLOR SPF 20 ROSA VIVA MATE - PINK; Esika PRO HD LONGWEAR LONG-LASTING HIGH-DEFINITION COLOR SPF 20; Esika PRO HD LONGWEAR LONG-LASTING HIGH-DEFINITION COLOR SPF 20 CORAL ENSUENO - RED; Esika PRO HD LONGWEAR LONG-LASTING HIGH-DEFINITION COLOR SPF 20 FUCSIA DELIRIO - PINK; Esika PRO HD LONGWEAR LONG-LASTING HIGH-DEFINITION COLOR SPF 20 FUCSIA SUBLIME - PINK; Esika PRO HD LONGWEAR LONG-LASTING HIGH-DEFINITION COLOR SPF 20 FUCSIA TENTACION - PINK; Esika PRO HD LONGWEAR LONG-LASTING HIGH-DEFINITION COLOR SPF 20 FUCSIA VIBRANTE - PINK; Esika PRO HD LONGWEAR LONG-LASTING HIGH-DEFINITION COLOR SPF 20 MARRON BAMBU - BROWN; Esika PRO HD LONGWEAR LONG-LASTING HIGH-DEFINITION COLOR SPF 20 MARRON FANATIC - BROWN; Esika PRO HD LONGWEAR LONG-LASTING HIGH-DEFINITION COLOR SPF 20 MARRON HAVANA - BROWN; Esika PRO HD LONGWEAR LONG-LASTING HIGH-DEFINITION COLOR SPF 20 NATURAL DUNE - BEIGE; Esika PRO HD LONGWEAR LONG-LASTING HIGH-DEFINITION COLOR SPF 20 NUDE Cream - BEIGE; Esika PRO HD LONGWEAR LONG-LASTING HIGH-DEFINITION COLOR SPF 20 NUDE MOCCHA - BEIGE; Esika PRO HD LONGWEAR LONG-LASTING HIGH-DEFINITION COLOR SPF 20 NUDE ROSE- BEIGE; Esika PRO HD LONGWEAR LONG-LASTING HIGH-DEFINITION COLOR SPF 20 PIMIENTA CALIENTE - RED; Esika PRO HD LONGWEAR LONG-LASTING HIGH-DEFINITION COLOR SPF 20 ROJO FIESTA - RED; Esika PRO HD LONGWEAR LONG-LASTING HIGH-DEFINITION COLOR SPF 20 ROJO GLAM - RED; Esika PRO HD LONGWEAR LONG-LASTING HIGH-DEFINITION COLOR SPF 20 ROJO PASION - RED; Esika PRO HD LONGWEAR LONG-LASTING HIGH-DEFINITION COLOR SPF 20 ROSA FIORELLE - PINK; Esika PRO HD LONGWEAR LONG-LASTING HIGH-DEFINITION COLOR SPF 20 ROSA VIVA - PINK; Esika PRO HD LONGWEAR LONG-LASTING HIGH-DEFINITION COLOR SPF 20 VINO CAUTIVANTE - PURPLE; Esika PRO HD LONGWEAR LONG-LASTING HIGH-DEFINITION COLOR SPF 20 VINO DESEO - PURPLE; Esika Perfect Sun Kids; Esika Pro Compact High Definintion and Double Finish SPF 15 CLEAR 1 - BEIGE; Esika Pro Compact High Definintion and Double Finish SPF 15 CLEAR 2 - BEIGE; Esika Pro Compact High Definintion and Double Finish SPF 15 MEDIUM 1 - BEIGE; Esika Pro Compact High Definintion and Double Finish SPF 15 MEDIUM 2 - BEIGE; Esika Pro Compact High Definintion and Double Finish SPF 15 MEDIUM 3 - BEIGE; Esika Pro Compact High Definintion and Double Finish SPF 15 MEDIUM 4 - BEIGE; Esika Pro Compact High Definintion and Double Finish SPF 15 MEDIUM 5 - BEIGE; Esika Pro HIDRACOLOR 3 in 1 Moisturizing, Color and Perfecting Effect SPF 25; Esika Pro Hd Color High Definition Color SPF 20; Esika Pro Hd Color High Definition Color SPF 20 (hd Berry Balcanic) - Red; Esika Pro Hd Color High Definition Color SPF 20 (hd Cafe Habano) - Brown; Esika Pro Hd Color High Definition Color SPF 20 (hd Ciruela Glam) - Red; Esika Pro Hd Color High Definition Color SPF 20 (hd Coral Ensueno) - Red; Esika Pro Hd Color High Definition Color SPF 20 (hd Frambuesa Encanto) - Purple; Esika Pro Hd Color High Definition Color SPF 20 (hd Fresa Imperial) - Red; Esika Pro Hd Color High Definition Color SPF 20 (hd Fucsia Opulento) - Pink; Esika Pro Hd Color High Definition Color SPF 20 (hd Fucsia Vibrante) - Pink; Esika Pro Hd Color High Definition Color SPF 20 (hd Lava Lips) - Orange; Esika Pro Hd Color High Definition Color SPF 20 (hd Magenta Sweet) - Purple; Esika Pro Hd Color High Definition Color SPF 20 (hd Melon Intense) - Pink; Esika Pro Hd Color High Definition Color SPF 20 (hd Pimienta Caliente) - Brown; Esika Pro Hd Color High Definition Color SPF 20 (hd Rojo Exhuberante) - Red; Esika Pro Hd Color High Definition Color SPF 20 (hd Rojo Glam) - Red; Esika Pro Hd Color High Definition Color SPF 20 (hd Rosa Obsession) - Pink; Esika Pro Hd Color High Definition Color SPF 20 (hd Rosa Viva) - Pink; Esika Pro Hd Color High Definition Color SPF 20 (hd Rosado Chic) - Pink; Esika Pro Hd Color High Definition Color SPF 20 (hd Vino Cautivante) - Brown; Esika Pro Hydro-nutritive Foundation SPF 15 (beige 1) - Brown; Esika Pro Hydro-nutritive Foundation SPF 15 (beige 2) - Brown; Esika Pro Hydro-nutritive Foundation SPF 15 (beige 3) - Brown; Esika Pro Hydro-nutritive Foundation SPF 15 (beige 4) - Brown; Esika Pro Hydro-nutritive Foundation SPF 15 (beige 5) - Brown; Esika Pro Hydro-nutritive Foundation SPF 15 (beige 6) - Brown; Esika Pro Hydro-nutritive Foundation SPF 15 (rosa 1) - Pink; Esika Pro Hydro-nutritive Foundation SPF 15 (rosa 2) - Pink; Esika Pro Hydro-nutritive Foundation SPF 15 (rosa 3) - Pink; Esika Pro Hydro-nutritive Foundation SPF 15 (rosa 4) - Pink; Esika Pro Hydro-nutritive Foundation SPF 15 (rosa 5) - Pink; Esika Pro Hydro-nutritive Foundation SPF 15 (rosa 6) - Pink; Esika Pro Instant Perfection 3 En 1 Face Refining Foundation SPF 25 Claro 1 - Beige; Esika Pro Instant Perfection 3 En 1 Face Refining Foundation SPF 25 Claro 2 - Beige; Esika Pro Instant Perfection 3 En 1 Face Refining Foundation SPF 25 Medio 1 - Beige; Esika Pro Instant Perfection 3 En 1 Face Refining Foundation SPF 25 Medio 2 - Beige; Esika Pro Instant Perfection 3 En 1 Face Refining Foundation SPF 25 Medio 3 - Beige; Esika Pro Instant Perfection 3 En 1 Face Refining Foundation SPF 25 Medio 4 - Beige; Esika Pro Instant Perfection 3 En 1 Face Refining Foundation SPF 25 Medio 5 - Beige; Esika Pro Multi-gloss Dual With Triple Gloss Effect SPF 15 (ambar) - Yellow; Esika Pro Multi-gloss Dual With Triple Gloss Effect SPF 15 (cereza) - Pink; Esika Pro Multi-gloss Dual With Triple Gloss Effect SPF 15 (champagne) - Beige; Esika Pro Multi-gloss Dual With Triple Gloss Effect SPF 15 (cobre) - Orange; Esika Pro Multi-gloss Dual With Triple Gloss Effect SPF 15 (diamante Rosa) - Pink; Esika Pro Multi-gloss Dual With Triple Gloss Effect SPF 15 (fresa) - Pink; Esika Pro Multi-gloss Dual With Triple Gloss Effect SPF 15 (fucsia) - Pink; Esika Pro Multi-gloss Dual With Triple Gloss Effect SPF 15 (melon) - Orange; Esika Pro Multi-gloss Dual With Triple Gloss Effect SPF 15 (pimienta Caliente) - Pink; Esika Pro Multi-gloss Dual With Triple Gloss Effect SPF 15 (rosa) - Pink; Esika Pro Multi-gloss Dual With Triple Gloss Effect SPF 15 (rubi) - Pink; Esika Pro Multi-gloss Dual With Triple Gloss Effect SPF 15 (vino) - Beige; Esika Pro Perfect Match Volumen (burgundy Vital) - Red; Esika Pro Perfect Match Volumen (cafe Misterio) - Brown; Esika Pro Perfect Match Volumen (cafe Pariso) - Brown; Esika Pro Perfect Match Volumen (cereza Sexy) - Pink; Esika Pro Perfect Match Volumen (coral Seductor) - Pink; Esika Pro Perfect Match Volumen (durazno Amor) - Orange; Esika Pro Perfect Match Volumen (fresa Energy) - Red; Esika Pro Perfect Match Volumen (fresa Tentacion) - Red; Esika Pro Perfect Match Volumen (fucsia Sensual) - Pink; Esika Pro Perfect Match Volumen (pimienta Caliente) - Brown; Esika Pro Perfect Match Volumen (rojo Pasion) - Red; Esika Pro Perfect Match Volumen (rojo Radiant) - Red; Esika Pro Perfect Match Volumen (rosa Deseo) - Red; Esika Pro Perfect Match Volumen (rosa Golosa) - Pink; Esika Pro Perfect Match Volumen (rose Bloom) - Red; Esika Pro Perfect Match Volumen (vino Caliente) - Purple; Esika Pro Perfect Match Volumen (vino Sublime) - Red; Esika Pro Perfect Match Volumen SPF 20 Plus Lip Liner for Maximum Fullness - (burgundy Vital) - Red; Esika Pro Perfect Match Volumen SPF 20 Plus Lip Liner for Maximum Fullness - (cafe Misterio) - Brown; Esika Pro Perfect Match Volumen SPF 20 Plus Lip Liner for Maximum Fullness - (cafe Pariso) - Brown; Esika Pro Perfect Match Volumen SPF 20 Plus Lip Liner for Maximum Fullness - (cereza Sexy) - Pink; Esika Pro Perfect Match Volumen SPF 20 Plus Lip Liner for Maximum Fullness - (coral Seductor) - Pink; Esika Pro Perfect Match Volumen SPF 20 Plus Lip Liner for Maximum Fullness - (durazno Amor) - Brown; Esika Pro Perfect Match Volumen SPF 20 Plus Lip Liner for Maximum Fullness - (fresa Energy) - Red; Esika Pro Perfect Match Volumen SPF 20 Plus Lip Liner for Maximum Fullness - (fresa Tentacion) - Red; Esika Pro Perfect Match Volumen SPF 20 Plus Lip Liner for Maximum Fullness - (fucsia Sensual) - Pink; Esika Pro Perfect Match Volumen SPF 20 Plus Lip Liner for Maximum Fullness - (pimienta Caliente) - Red; Esika Pro Perfect Match Volumen SPF 20 Plus Lip Liner for Maximum Fullness - (rojo Pasion) - Red; Esika Pro Perfect Match Volumen SPF 20 Plus Lip Liner for Maximum Fullness - (rojo Radiant) - Red; Esika Pro Perfect Match Volumen SPF 20 Plus Lip Liner for Maximum Fullness - (rosa Deseo) - Brown; Esika Pro Perfect Match Volumen SPF 20 Plus Lip Liner for Maximum Fullness - (rose Bloom) - Red; Esika Pro Perfect Match Volumen SPF 20 Plus Lip Liner for Maximum Fullness - (vino Caliente) - Purple; Esika Pro Perfect Match Volumen SPF 20 Plus Lip Liner for Maximum Fullness - (vino Sublime) - Red; Esika Pro Perfect Match Volumen SPF 20 Plus Lip Liner for Maximum Fullness -(rosa Golosa) - Pink; Esika Protector Against Solar Rays for Children, Face and Body SPF 50; Esika Silk Skin; Esika Silk Skin Terracota; Esika Silk Skin Translucido; Esika Triple Accion Max Bb Crema Facial Perfeccionadora Con Color Fps 30 6 Beneficios En 1 Claro (beige); Esika Triple Accion Max Bb Crema Facial Perfeccionadora Con Color Fps 30 6 Beneficios En 1 Medio (brown); Esika Triple Accion Max Bb Dark Beige; Esika Triple Accion Max Bb Light Beige; Esika Ultra Softening SPF 15; Essence Air Cushion Light; Essence Air Cushion Medium; Essence Air Cushion Medium Deep; Essence Air Cushion Medium Light; Essential Defense Active Broad Spectrum SPF 50 Sunscreen; Essential Defense Everyday Clear Broad Spectrum SPF 47 Sunscreen; Essential Defense Vital Hydration Broad Spectrum SPF 36 Sunscreen Tinted; Essential Moisture Lip Conditioner SPF 15; Essential Shockeye and Lip; Essential-C Day Moisture Broad Spectrum SPF 30 Pa+++; Essential-C Day Moisture SPF 30; Estee Lauder Advanced Time Zone Age Reversing Line/wrinkle Creme Oil-free SPF 15 for Normal/combination Skin; Estee Lauder Advanced Time Zone Age Reversing Line/wrinkle Creme SPF 15 for Normal/combination Skin; Estee Lauder Amber Bronze Lip Gloss Balm SPF 15; Estee Lauder Amber Bronze Lip Tint Balm SPF 15; Estee Lauder Body Shimmer Sunscreen SPF 15; Estee Lauder Clear Difference Bb Complexion Perfecting Bb CRème SPF 35; Estee Lauder Daywear B.b Multi-perfecting Beauty Benefit CRème SPF 35; Estee Lauder Daywear Multi-protection Sheer Tint Release Moisturizer SPF 15 All Skintypes; Estee Lauder Daywear Plus Multi Protection Anti-oxidant Eye Creme SPF 15; Estee Lauder Daywear Plus Multi Protection Eye Cream SPF 15; Estee Lauder Daywear Plus Multi Protection Tinted Moisturizer SPF 15; Estee Lauder Daywear Plus Multiprotection Creme SPF 15 for Dry Skin; Estee Lauder Daywear Plus Multiprotection Creme SPF 15 for Normal/combination Skin; Estee Lauder Daywear Plus Multiprotection Lotion SPF 15 for Oily Skin; Estee Lauder Double Matte Oil-control Makeup SPF 15; Estee Lauder Double Wear All-day Glow Bb Moisture Makeup SPF 30; Estee Lauder Double Wear Nude Water Fresh Makeup SPF 30; Estee Lauder Double Wear Stay-IN-place High Cover Concealer SPF 35; Estee Lauder Fast Tan Quick-dry Sunless Spray SPF 15; Estee Lauder Fresh Air Continuous Moisture Tint SPF 15; Estee Lauder Hydra Bright Skin-tone Perfecting Moisturizer SPF 15; Estee Lauder Hydrationist Maximum Moisture Creme SPF 15; Estee Lauder Lightsource Time-resisting Moisture Creme SPF 15; Estee Lauder Lightsource Time-resisting Moisture Lotion SPF 15; Estee Lauder Lip Conditioner SPF 15; Estee Lauder Lip Sheen SPF 15; Estee Lauder Perfectionist Youth-infusing Makeup SPF 25; Estee Lauder Re-nutriv Intensive Lifting Hand Creme SPF 15; Estee Lauder Re-nutriv Ultra Radiance Makeup SPF 15; Estee Lauder Resilience Lift Extreme Liquid Makeup SPF 15; Estee Lauder Resilience Lift Extreme Ultra Firming Creme SPF 15 Dry Skin; Estee Lauder Resilience Lift Extreme Ultra Firming Creme SPF 15 Normal/combination Skin; Estee Lauder Resilience Lift Extreme Ultra Firming Lotion SPF 15; Estee Lauder Resilience Lift Face and Throat Creme SPF 15; Estee Lauder Resilience Lift Face and Throat Lotion SPF 15; Estee Lauder Resilience Lift Firming/sculpting Face and Neck CRème SPF 15 for Dry Skin; Estee Lauder Resilience Lift Firming/sculpting Face and Neck Lotion SPF 15; Estee Lauder Revelation Age-resisting Hand Creme SPF 15; Estee Lauder Shimmering Shield for Lips and Face Sunscreen SPF 30; Estee Lauder Sun Performance SPF 30 Sunscreen Sun Care Multi-protection Sun Lotion for Body; Estee Lauder Sun Performance SPF 30 Sunscreen Sun Care Multi-protection Sun Lotion for Face; Estee Lauder Sunblock for Body SPF 15; Estee Lauder Sunblock for Body SPF 25; Estee Lauder Time Zone Line and Wrinkle Reducing Creme SPF 15 for Normal/combination Skin; Estee Lauder Time Zone Line and Wrinkle Reducing Lotion SPF 15; Estro-Lift Day Therapy; Estée Lauder Sunblock for Face SPF 15; Ethylhexyl Methoxycinnamate cream; Etival Cc Cream; Eucerin; Eucerin Daily Protection Body; Eucerin Daily Protection Face; Eucerin Everyday Protection Face; Eucerin Q10 Anti-Wrinkle Sensitive Skin; Eucerin Redness Relief Daily Perfecting; Eve Lom Brilliant Cover Concealer Broad Spectrum SPF 15 Sunscreen; Eve Lom Daily Protection Broad Spectrum SPF 50 Sunscreen; Eve Lom Flawless Radiance Primer Broad Spectrum SPF 30 Sunscreen; Eve Lom Radiance Lift Foundation SPF 15; Eve Lom Radiance Perfected Tinted Moisturiser Broad Spectrum SPF 15 Sunscreen; Eve Lom Radiance Perfected Tinted Moisturiser SPF 15; Eve Lom Radiant Glow Cream Foundation Broad Spectrum SPF 30 Sunscreen; Even Better Glow Light Reflecting Makeup Broad Spectrum SPF 15; Even Better Makeup Broad Spectrum SPF 15; Even Better Makeup SPF 15 Evens and Corrects; Evenly Radiant Brightening Day Creme SPF 15; EverGlam BB Natural Beige; Every Man Jack Lip Balm SPF 15; Everyday Face and body Broad Spectrum SPF 30 Supergoop; Everyday Sunscreen; Everyday Sunscreen SPF 50 Supergoop; Evian Original Hydrating Lotion SPF 15; Exact Babies Sunscreen Lotion SPF Fps 45; Exact Babies Sunscreen Spray SPF Fps 45; Exact Clear Continuous Spray Sunscreen SPF/fps 30; Exact Lip Balm Conditioning Formula; Exact Lip Balm Moisturizing; Exact Lip Balm Year-round Protection; Exact SPF 15 Fps Fruit Flavours; Exact Sport Clear Continuous Spray Sunscreen SPF/fps 30; Excell-A3 Spf8; Exchange Select Sport Sunscreen SPF 15; Exchange Select Sunscreen SPF 15; Exel Clarifying Line SPF 50; Expert Finish Makeup Broad Spectrum SPF 25; Expression Marine; Exten-10 Instant Youth Boosting Moisturizer SPF 15; Extra Lasting Cream-TO-powder Foundation; Extra Lasting Lipstick/rouge à Lèvres; Extra Repair Foundation Broad Spectrum SPF 25; Extra Repair Moisturing Balm SPF 25; Extra Rich Day Defense SPF 30; Extralasting Cream-to-Powder Foundation; Extreme (UVA/UVB) SPF 33; Extreme Protect SPF 30; Extreme Protect SPF-30; Exuviance Age Reverse Day Repair SPF 30; Exuviance Essential Daily Defense SPF 30; Exuviance Multi Protective Day SPF 20; Exuviance Optilight All-Over Dark Spot Minimizer SPF 25; Exuviance Sheer Refining Fluid SPF 35; Eye Contour Multi-protection Sun Care SPF 30; FACE IT BB (Natural Beige) 32800379; FACE IT Radiance Two Way Cake NB21; FACE IT Radiance Two Way Cake NB23; FACE it 32800378; FC5 Complexion Perfecting Set; FC5 Face Normal to Dry Sample Set; FC5 Face Oily Combination Sample Set; FC5 Nurturing Day Broad Spectrum SPF 20 Sunscreen; FC5 Oil-Absorbing Day Broad Spectrum SPF 20 Sunscreen; FLORMAR REBORN BB SUNSCREEN BROAD SPECTRUM SPF 30 CP30 Caramel; Face & Body Protector SPF 15; Face Cream 50; Face Factor; Face Factor SPF 50; Face Guard 30 SPF; Face Guard Advanced; Face It 32800285; Face It 4d Perfection Roller Foundation 21; Face It 4d Perfection Roller Foundation 23; Face It 4d Perpect Two-way Cake Nb21; Face It 4d Perpect Two-way Cake Nb23; Face It Aqua Tinted 32800420; Face It Aqua Tinted 32800421; Face It Aqua Tinted Bb Cream SPF 20/pa++; Face It Aqua Tinted Bb SPF 20 Pa 01; Face It Aqua Tinted Bb SPF 20 Pa 02; Face It Aqua Uv Color Control 32800772; Face It Aqua Uv Color Control 32800773; Face It Aqua Uv Color Control 32800789; Face It Aqua Uv Color Control 32800790; Face It Aura Color Control 32800657; Face It Aura Color Control 32800658; Face It Aura Color Control 32800660; Face It Aura Color Control 32800675; Face It Aura Color Control 32800676; Face It Aura Color Control Cream SPF 30/pa++; Face It Aura Color Control Spf30 (refill), 01 Radiant Beige 32800659; Face It Bb SPF 50+/pa+++; Face It Collagen EX Skin Cover SPF 20/pa++; Face It Hd Perfect Bb 32800472; Face It Hd Perfect Bb 32800473; Face It Hd Perfect Bb Cream SPF 35/pa++; Face It Hd Perfect Bb Spf30 Pa 01; Face It Hd Perfect Bb Spf30 Pa 02; Face It Magic Cover Bb Cream SPF 20/pa++; Face It Phytocollagen EX Two-way Cake SPF 30/pa+++; Face It Power Perfection 32800311; Face It Power Perfection 32800312; Face It Power Perfection 32800408; Face It Power Perfection 32800843; Face It Power Perfection Bb 00 32800842; Face It Power Perfection Bb Cream SPF 37/pa++; Face It Radiance Foundation Spf20 Nb21; Face It Radiance Foundation Spf20 Nb23; Face It Radiance Makeup Base SPF 20 Pa++; Face It Radiance Powder Pact SPF 50+/pa+++; Face It Radiance Powder Pact Spf25 Moisture Veil Nb17; Face It Radiance Powder Pact Spf25 Moisture Veil Nb21; Face It Radiance Powder Pact Spf25 Moisture Veil Nb23; Face It Radiance Two-way Cake SPF 25 Pa++; Face It Shimmering Bb Cream SPF 20/pa+; Face Magic; Face Mix Make up Base Green; Face Mix Skin Foundation; Face Moisturiser; Face Protector Broad Spectrum SPF 40 Jafra; Face Protector SPF 40; Face Stick Premium Endurance Sunscreen 30; Face Stockholm BB Natural Beauty Balm SPF 30 Shade NR 1; Face Stockholm BB Natural Beauty Balm SPF 30 Shade NR 2; Face Tone Controller 01 Spf30; Face Tone Controller Spf30; Face Values - AM Facial Moisturizing Broad Spectrum SPF30 Sunscreen; Face Zone Sun Block 30 SPF; Face Zone Sun Block SPF 30; Face and Body Protective Lotion SPF 30; Face and Body Sunscreen; Face and Body Sunscreen Spray SPF 35; Face-zone Sun Block 15 SPF; Faces Sunscreen Lotion for Babies; Facescreen SPF 50; Facet It Pure Color Control 32800851; Facial Boosting Broad Spectrum SPF 15 Jafra; Facial Day Lotion SPF 15; Facial Day Treatment SPF 15 With Kinetin; Facial Fuel SPF 15; Facial Moisturizer SPF 15 Lotion; Facial SPF 20/fps 20; Facial Shield SPF 20; Facial Sun Cream SPF 15; Facial Sun Stick SPF 30; Facial Sunscreen SPF 20 Lotion; Fade Dark Spots Daytime Treatment; Fair and Square Kids Sunscreen SPF 50; Family Sunscreen SPF 36; Fc5 Nurturing Day Lotion With SPF 20; Fc5 Oil-absorbing Day Lotion With SPF 20; Featherlite Maximum Foundation SPF 15; Feel Naturale SPF 15; Feel Naturale SPF 15 (powder); Feel Naturale SPF 15 Light Softening One Step Make-UP; Feel Perfecte SPF 15 - Liq 4%; Fin McMissie Sun Smacker SPF 24 Vroom Vroom Vanilla; Finish Bronzer SPF 10; Finish SPF 15; Firmalift Firming and Lifting Cream SPF 30; Firmarine Day Cream SPF 30 CRème De Jour SPF 30; Firmarine Moisturizer SPF 30; Firming Day SPF 30; Firming Moisture; Firming and Moisturizing Body; Five Star Lip Protection; Flash Radiant Primer; Flavored Lips SPF 30; Flawless Effect Liquid Foundation SPF 15 Merle Norman; Flawless Finish Bare Perfection Makeup SPF 8; Flawless Finish Bare Perfection Makeup SPF 8 Beige; Flawless Finish Bare Perfection Makeup SPF 8 Bisque; Flawless Finish Bare Perfection Makeup SPF 8 Buff; Flawless Finish Bare Perfection Makeup SPF 8 Camellia; Flawless Finish Bare Perfection Makeup SPF 8 Cameo; Flawless Finish Bare Perfection Makeup SPF 8 Cream; Flawless Finish Bare Perfection Makeup SPF 8 Fawn; Flawless Finish Bare Perfection Makeup SPF 8 Honey; Flawless Finish Bare Perfection Makeup SPF 8 Honey Beige; Flawless Finish Bare Perfection Makeup SPF 8 Ivory; Flawless Finish Bare Perfection Makeup SPF 8 Mocha; Flawless Finish Bare Perfection Makeup SPF 8 Perfect Beige; Flawless Finish Bare Perfection Makeup SPF 8 Toasty Beige; Flawless Finish Bare Perfection Makeup SPF 8 Vanilla Shell; Flawless Finish Bare Perfection Makeup SPF 8 Warm Bronze; Flawless Finish Bare Perfection Makeup SPF 8 Warm Cappuccino; Flawless Finish Bare Perfection Makeup SPF 8 Warm Mahogany; Flawless Finish Bare Perfection Makeup SPF 8 Warm Sunbeige; Flawless Finish Dual Perfection Makeup SPF 8 Beige; Flawless Finish Dual Perfection Makeup SPF 8 Bisque; Flawless Finish Dual Perfection Makeup SPF 8 Buff; Flawless Finish Dual Perfection Makeup SPF 8 Camellia; Flawless Finish Dual Perfection Makeup SPF 8 Cameo; Flawless Finish Dual Perfection Makeup SPF 8 Cream; Flawless Finish Dual Perfection Makeup SPF 8 Fawn; Flawless Finish Dual Perfection Makeup SPF 8 Golden Beige; Flawless Finish Dual Perfection Makeup SPF 8 Honey; Flawless Finish Dual Perfection Makeup SPF 8 Ivory; Flawless Finish Dual Perfection Makeup SPF 8 Mocha; Flawless Finish Dual Perfection Makeup SPF 8 Shell; Flawless Finish Dual Perfection Makeup SPF 8 Sunbeige; Flawless Finish Dual Perfection Makeup SPF 8 Vanilla; Flawless Finish Perfectly Nude; Flawless Finish Perfectly Nude Makeup Broad Spectrum Sunscreen SPF 15 Shade Alabaster; Flawless Finish Perfectly Nude Makeup Broad Spectrum Sunscreen SPF 15 Shade Amber; Flawless Finish Perfectly Nude Makeup Broad Spectrum Sunscreen SPF 15 Shade Beige; Flawless Finish Perfectly Nude Makeup Broad Spectrum Sunscreen SPF 15 Shade Bisque; Flawless Finish Perfectly Nude Makeup Broad Spectrum Sunscreen SPF 15 Shade Buff; Flawless Finish Perfectly Nude Makeup Broad Spectrum Sunscreen SPF 15 Shade Cameo; Flawless Finish Perfectly Nude Makeup Broad Spectrum Sunscreen SPF 15 Shade Caramel; Flawless Finish Perfectly Nude Makeup Broad Spectrum Sunscreen SPF 15 Shade Cashew; Flawless Finish Perfectly Nude Makeup Broad Spectrum Sunscreen SPF 15 Shade Cashmere; Flawless Finish Perfectly Nude Makeup Broad Spectrum Sunscreen SPF 15 Shade Chestnut; Flawless Finish Perfectly Nude Makeup Broad Spectrum Sunscreen SPF 15 Shade Cocoa; Flawless Finish Perfectly Nude Makeup Broad Spectrum Sunscreen SPF 15 Shade Cream Nude; Flawless Finish Perfectly Nude Makeup Broad Spectrum Sunscreen SPF 15 Shade Golden Nude; Flawless Finish Perfectly Nude Makeup Broad Spectrum Sunscreen SPF 15 Shade Honey Beige; Flawless Finish Perfectly Nude Makeup Broad Spectrum Sunscreen SPF 15 Shade Linen; Flawless Finish Perfectly Nude Makeup Broad Spectrum Sunscreen SPF 15 Shade Natural; Flawless Finish Perfectly Nude Makeup Broad Spectrum Sunscreen SPF 15 Shade Sienna; Flawless Finish Perfectly Nude Makeup Broad Spectrum Sunscreen SPF 15 Shade Soft Beige; Flawless Finish Perfectly Nude Makeup Broad Spectrum Sunscreen SPF 15 Shade Spice; Flawless Finish Perfectly Nude Makeup Broad Spectrum Sunscreen SPF 15 Shade Tawny; Flawless Finish Perfectly Nude Makeup Broad Spectrum Sunscreen SPF 15 Shade Toasted Almond; Flawless Finish Perfectly Nude Makeup Broad Spectrum Sunscreen SPF 15 Shade Toasty Beige; Flawless Finish Perfectly Nude Makeup Broad Spectrum Sunscreen SPF 15 Shade Vanilla Shell; Flawless Finish Perfectly Nude Makeup Broad Spectrum Sunscreen SPF 15 Shade Warm Cappuccino; Flawless Finish Perfectly Nude Makeup Broad Spectrum Sunscreen SPF 15 Shade Warm Mahogany; Flawless Finish Perfectly Nude Makeup Broad Spectrum Sunscreen SPF 15 Shade Warm Sunbeige; Flawless Finish Perfectly Satin 24hr; Flawless Finish Perfectly Satinb 24hr Makeup Shade; Flawless Finish Perfectly Satinb 24hr Makeup Shade Alabaster; Flawless Finish Perfectly Satinb 24hr Makeup Shade Beige; Flawless Finish Perfectly Satinb 24hr Makeup Shade Bisque; Flawless Finish Perfectly Satinb 24hr Makeup Shade Cameo; Flawless Finish Perfectly Satinb 24hr Makeup Shade Caramel; Flawless Finish Perfectly Satinb 24hr Makeup Shade Chestnut; Flawless Finish Perfectly Satinb 24hr Makeup Shade Cocoa; Flawless Finish Perfectly Satinb 24hr Makeup Shade Golden Sands; Flawless Finish Perfectly Satinb 24hr Makeup Shade Honey Beige; Flawless Finish Perfectly Satinb 24hr Makeup Shade Neutral Bisque; Flawless Finish Perfectly Satinb 24hr Makeup Shade Nude; Flawless Finish Perfectly Satinb 24hr Makeup Shade Sand; Flawless Finish Perfectly Satinb 24hr Makeup Shade Soft Shell; Flawless Finish Perfectly Satinb 24hr Makeup Shade Soft Tan; Flawless Finish Perfectly Satinb 24hr Makeup Shade Spice; Flawless Finish Perfectly Satinb 24hr Makeup Shade Sunbeige; Flawless Finish Perfectly Satinb 24hr Makeup Shade Toasty Beige; Flawless Future; Flawless Future Moisture; Flawless Skin Makeup Broad Spectrum SPF 15; Flawless Skin Protecting Foundation SPF 25; Flawless Tinted Moisturizer Dark SPF 18; Flawless Tinted Moisturizer Light SPF 18; Flawless Tinted Moisturizer Medium SPF 18; Floria Whitening Day Spf15 Pa Plus; Flormar BB White BW01 Light; Flormar BB White BW02 Light Medium; Flormar BB White BW03 Dark Medium; Flormar BB White BW04 Medium Beige; Flormar BB White BW05 Natural Beige; Flormar BB White BW06 Warm Beige; Flormar Blur Effect BB Sunscreen Broad Spectrum SPF 30 01 Light; Flormar Blur Effect BB Sunscreen Broad Spectrum SPF 30 02 Light Medium; Flormar Blur Effect BB Sunscreen Broad Spectrum SPF 30 03 Dark Medium; Flormar Lip Moisturizer Apple Sunscreen Stick Broad Spectrum SPF 15; Flormar Lip Moisturizer Cream Carmel Sunscreen Broad Spectrum SPF 15; Flormar Lip Moisturizer Orange Sunscreen Broad Spectrum SPF 15; Flormar Lip Moisturizer Strawberry Sunscreen Broad Spectrum SPF 15; Flormar Lip Moisturizer Watermelon Sunscreen Stick Broad Spectrum SPF 15; Flormar Perfect Coverage Foundation 115 Toffee; Flormar Perfect Coverage Foundation 117 Dark Caramel; Flormar Perfect Coverage Foundation 118 Dark Brown; Flormar Radiant Pink Skin Highlighter Sunscreen Broad Spectrum SPF 15; Flormar Smooth Touch Foundation 01 Porcelain; Flormar Smooth Touch Foundation 02 Pink Porcelain; Flormar Smooth Touch Foundation 03 Light Ivory; Flormar Smooth Touch Foundation 04 Ivory; Flormar Smooth Touch Foundation 05 Soft Beige; Flormar Smooth Touch Foundation 06 Beige; Flormar Smooth Touch Foundation 07 Golden Neutral; Flormar Smooth Touch Foundation 08 Medium Beige; Flormar Smooth Touch Foundation 09 Golden Beige; Flormar Smooth Touch Foundation 10 Sand; Flormar Smooth Touch Foundation 11 Honey; Flormar Smooth Touch Foundation 12 Amber; Flormar Smooth Touch Foundation 13 Caramel; Flormar Smooth Touch Foundation 14 Dark Caramel; Flounder Sun Smacker SPF 24 Watermelon Wave; Fluid Body Sun Cream SPF 20; Fluid Foundation SPF 30 Color 01; Fluid Foundation SPF 30 Color 02; Fluid Foundation SPF 30 Color 03; Fluide De Jour; Fluide De Jour Fps 20 Pro-derm; Fluide Desalterant Multi-hydratant SPF 15; Fluide Fondant Desalterant Super Hydratant SPF 15; Fluide Hydratant Quotidien SPF 15; Fluide Lift Jour Toutes Peaux - Multi Régénérante - SPF 15; Fluide Multi-confort Super Hydratant Spf15; Fluide Multi-regenerant Lift Jour - SPF 15; Fluide Protecteur Jeunesse Des Mains SPF 15; Fluide Ãclat Du Jour SPF 15; For Goodness Face Antioxidant Skin Moisturizing Lotion SPF 30; For Kids SPF 45 Sunscreen Lotion; For Men Maca Root Energetic Face Protector; For Men Maca Root Energetic Face Protector SPF 15; For The Gardener Lip Balm SPF 30; Force C Premium SPF 15; Forever Light Creator Cc Cream SPF 35; Forever Young Body Butter Broad Spectrum Sunscreen SPF 40 Supergoop; Forever Young Hand Broad Spectrum SPF 40 Supergoop; Forever Young Hand Cream With Sea Buckthorn; Forme Cosmetics Delicious Lip Balm SPF 12; Foundation Balanced Satin Finish SPF 15; Foundation Balanced Satin Finish Spf15; Foundation Caramel; Foundation Nude; Foundation Primer Plus SPF 15; Foundation Primer Plus SPF 15 MERLE NORMAN; Foundation Primer SPF 15; Foundation Soft Cocoa; Foundation Sweet Almond; Fps 15 SPF Baume Pour Les Lèvres Lip Balm; Fresh Black Tea Age-Delay Broad Spectrum Sunscreen SPF 20; Fresh Cucumber Classic Body SPF 30 Broad Spectrum; Fresh Cucumber Classic Face SPF 30 Broad Spectrum; Fresh Daily Hydrating Fluid SPF 15; Fresh Facial Cream SPF 15; Fresh Mint Moisturizing Sunscreen Lip Balm SPF 15; Fresh Peony Brightening UV Shield Sunscreen SPF 50 Plus; Fresh Skin Effortless Beauty Balm Broad Spectrum SPF 35; Fresh Suga(Red) Lip Treatment Sunscreen SPF 15; Fresh Sugar Berry Tinted Lip Treatment SPF 15; Fresh Sugar Cherry Tinted Lip Treatment SPF 15; Fresh Sugar Coral Tinted Lip Treatment SPF 15; Fresh Sugar Honey Tinted Lip Treatment SPF 15; Fresh Sugar Honey Tinted Lip Treatment SPF15; Fresh Sugar Lip Treatment SPF 15; Fresh Sugar Passion Tinted Lip Treatment SPF 15; Fresh Sugar Petal Tinted Lip Treatment SPF 15; Fresh Sugar Plum Tinted Lip Treatment SPF 15; Fresh Sugar Rose Tinted Lip Treatment SPF 15; Fresh Sugar Ruby Tinted Lip Treatment Sunscreen SPF 15; Fresh Sugar Tulip Tinted Lip Treatment Sunscreen SPF 15; Fresh Umbrain Clay Freshface Foundation SPF 20 Croisette; Frida Kahlo Edition Tension Pact Intense Moisture SPF37 No21; Frida Kahlo Edition Tension Pact Intense Moisture SPF37 No23; Frida Kahlo Edition Tension Pact Intense Moisture SPF37 No27; Frida Kahlo Edition Tension Pact Intense Moisture SPF37 No29; Frida Kahlo Edition Tension Pact Perfect Cover SPF37 No 21; Frida Kahlo Edition Tension Pact Perfect Cover SPF37 No 23; Frida Kahlo Edition Tension Pact Perfect Cover SPF37 No 27; Frida Kahlo Edition Tension Pact Perfect Cover SPF37 No 29; Frida Kahlo Edition Tension Pact Perfect Cover SPF37 No 31; Fruit Flavours Lip Balm; Fruit Of The Earth Block Up Dry Sport Fps/SPF 30 Continuous Spray; Fruit Of The Earth Block Up Fps/SPF 30 Continuous Spray; Fruit Of The Earth Block Up! Baby SPF 30 Sunblock With Aloe; Fruit Of The Earth Block Up! Face SPF 30 Sunblock With Aloe; Fruit Of The Earth Block Up! Sport SPF 30 Sunblock With Aloe; Fruit Of The Earth Block Up! Sunblock SPF 30 With Aloe; Fruit Of The Earth Block-UP Kids SPF 30 Bug Repelling; Fruit Of The Earth Block-UP Kids SPF 30 Color Spray (purple); Fruit Of The Earth Block-UP Regular SPF 45; Fruit Of The Earth Block-UP Sport 15; Fruit Of The Earth Block-UP Sport 30 Bug Repelling; Fruit Of The Earth Kids SPF/fps 50; Fruit Of The Earth Moisturizing Aloe Baby SPF 45 Sunblock; Fruit Of The Earth Moisturizing Aloe Kids SPF 30 Sunblock; Fruit Of The Earth Moisturizing Aloe SPF 15 Sunblock; Fruit Of The Earth Moisturizing Aloe SPF 30 Sunblock; Fruit Of The Earth Moisturizing Aloe SPF 45 Sunblock; Fruit Of The Earth Moisturizing Aloe SPF 8 Sunscreen; Fruit Of The Earth Moisturizing Aloe Sport SPF 15 Sunblock; Fruit Of The Earth Moisturizing Aloe Sport SPF 30 Sunblock; Fruit Of The Earth Moisturizing Aloe Sport SPF 8 Sunscreen; Fruit Of The Earth SPF/fps 30; Fruit Of The Earth SPF/fps 50; Fruit Of The Earth Sport SPF/fps 15; Fruit Of The Earth Sport SPF/fps 30; Fruit Of The Earth Sport SPF/fps 50; Fruit Smoothies; Fruit of the Earth Block Up Broad Spectrum Baby SPF 50; Fruit of the Earth Block Up Broad Spectrum Sport SPF 50; Fruit of the Earth Block Up Kids SPF 50; Fruit of the Earth Block Up Kids SPF 50 Moisturizing Sunscreen; Fruit of the Earth Block Up SPF 30 General Protection Sunscreen; Fruit of the Earth Block Up SPF 30 Sunscreen; Fruit of the Earth Block Up SPF 4 Dark Tanning; Fruit of the Earth Block Up SPF 50; Fruit of the Earth Block Up SPF 50 Full Spectrum Sunscreen; Fruit of the Earth Block Up Sport SPF 30 Sunscreen; Fruit of the Earth Block Up Sport SPF 50 Moisturizing Sunscreen; Fruit of the Earth Block Up Sport SPF 50 Sunscreen; Fruit of the Earth SPF 4 Moisturizing Tanning Sunscreen; Fruit of the Earth SPF 50 Moisturizing Sunscreen; Fruit of the Earth Sport SPF 50; Fruit of the Earth, Inc. Ultra SPF 50 Moisturizing Sunscreen; Full Coverage Foundation SPF 15; Full Service Sun Block 15 SPF; Full Service Sun Block 20 SPF; Full Service Sunblock 10spf; Full Spectrum Block SPF 15; Full Stay 24hr Spf50; Full Stay 24hr V203 Natural Beige; Full Stay Cc 24hr; Full Stay V201 Apricot Beige (refill); Future Solution Lx Daytime Protective Cream SPF 15; Future Solution Lx Daytime Protective Cream SPF 18; Future Solution Lx Total Protective Cream E; Future Solution Lx Total Protective Emulsion E; Future Solution Lx Universal Defense; Future White SPF 40; Futurist Age Resisting Makeup SPF 15; Futurist Full Treatment Lipstick SPF 15; Futurist Time-resisting Makeup SPF 15; G.Y. Protective Moisturizer; G9 Moisture CC SPF30 PA PLUS PLUS; GAP Favorite Lip Balm Apple Pie SPF 18; GAP Favorite Lip Balm Berry Punch SPF 18; GAP Favorite Lip Balm Citrus Splash SPF 18; GAP Favorite Lip Balm Creamy Pomegranate SPF 18; GAP Favorite Lip Balm Juicy Pear SPF 18; GAP Favorite Lip Balm Pomegranate SPF 18; GAP Favorite Lip Balm Tropical Twist SPF 18; GAP Favorite Lip Balm Watermelon SPF; GAP favorite Lip Balm Green Apple SPF 18; GMC Medical; GMC Medical ANTI-AGING TREATMENT; GMC Medical ANTIOXIDANT AND ANTI-AGING TREATMENT; GMC Medical POST PROCEDURE TREATMENT; GMC Medical Sun Protection; GUINOT HYDRA FINISH Face Cream SPF15; GUINOT Skin Defense SPF 15 Face; Gadis Lip Moisturizer SPF15; Gap Favorite Lip Balm Vanilla Mint SPF; Gap favorite Lip Balm Strawberry Kiwi; Gardeners Uv Shield SPF 15 Sunscreen; Garnier Nutritioniste Moisture Rescue Lightweight UV SPF 15; Garnier Nutritioniste Skin Renew Radiance Moisture Lotion SPF 15; Garnier Skin Naturals Lift SPF 15 Day; Garnier Skin Renew Miracle Skin Perfector; Garnier Skin Renew Miracle Skin Perfector AntiAging BB Broad Spectrum SPF 15 Sunscreen; Garnier Skin Renew Miracle Skin Perfector BB; Garnier Skin Renew Miracle Skin Perfector Combination to Oily Skin BB Broad Spectrum SPF 20 Sunscreen; Gel Bronzant Hydratant Fps 15; Gel Bronzant Hydratant Fps 8; Gel Bronzant Sport Fps 4; Gel Compact Teinte Ip6; Gel Protecteur Bronzant No.44; Gel Protecteur Ip-6; Gel Protector Solar Protecting Body Milk Lait Corps Protecteur SPF 20; Gel Solaire Bronzage Securite SPF 15; Gel Solaire Bronzage Securite SPF 15 Special Sport; Gelee Fraiche Bronz.hydratante SPF 8; Gelee Fraicheur Bronzage Eclat SPF 8; Gelee Solaire Bronzage Tres Rapide Special Peaux Halees-spf6; Gelée Fraîche Bronzante Hydratante Fps 8; Gelée Solaire Fraîcheur Protection Faible 8 SPF; Gelée Solaire Haute Protection SPF 15; General Protection; Geneva Naturals Advanced Anti-Aging with Sunscreen SPF 20; Geneva Naturals Advanced Anti-Aging with Sunscreen SPF 20 Unscented; Gentle Day Block SPF 30; Gentle Hydrating Day Cream Broad Spectrum SPF 15 Jafra; Gentle Rejuvenation Ultra Light Repair SPF 30 Sunscreen; Get A Tint Shimmer Tinted Moisturizer Lotion; Get A Tint Tinted Moisturizer Lotion; Get Even SPF 15 Tinted Moisturizer; Ginseng Royal Silk Pow Der 01 Pure Beige; Giorgio Armani Designer Lift Smoothing Firming Foundation Broad Spectrum SPF 20 Sunscreen; Giorgio Armani Designer Shaping Foundation Broad Spectrum SPF 20 Sunscreen; Giorgio Armani Face Fabric Second Skin Nude Makeup Broad Spectrum SPF 12 Sunscreen; Giorgio Armani Lasting Silk UV Foundation Broad Spectrum SPF 20 Sunscreen; Giorgio Armani Luminessence CC Color Control Bright Moisturizer Broad Spectrum SPF 35 Sunscreen; Giorgio Armani Maestro Fusion Makeup Broad Spectrum SPF 15 Sunscreen; Giorgio Armani Maestro Fusion Makeup Compact Broad Spectrum SPF 29 Sunscreen; Giorgio Armani Maestro Glow Nourishing Fusion Makeup Broad Spectrum SPF 30 Sunscreen; Giorgio Armani Maestro Summer Broad Spectrum SPF 15 Sunscreen; Giorgio Armani Maestro Sunscreen Fusion Makeup SPF 15; Giorgio Armani Maestro UV Skin Defense Primer Broad Spectrum SPF 50 Sunscreen; Giorgio Armani Power Fabric Long Wear High Cover Foundation Broad Spectrum SPF 25 Sunscreen; Giorgio Armani lasting silk UV compact foundation; Givenchy Blurring Foundation Balm Bare Skin Perfector - Broad Spectrum SPF 15 Nude Amber; Givenchy Blurring Foundation Balm Bare Skin Perfector - Broad Spectrum SPF 15 Nude Beige; Givenchy Blurring Foundation Balm Bare Skin Perfector - Broad Spectrum SPF 15 Nude Ginger; Givenchy Blurring Foundation Balm Bare Skin Perfector - Broad Spectrum SPF 15 Nude Gold; Givenchy Blurring Foundation Balm Bare Skin Perfector - Broad Spectrum SPF 15 Nude Honey; Givenchy Blurring Foundation Balm Bare Skin Perfector - Broad Spectrum SPF 15 Nude Porcelain; Givenchy Blurring Foundation Balm Bare Skin Perfector - Broad Spectrum SPF 15 Nude Sand; Givenchy Blurring Foundation Balm Bare Skin Perfector - Broad Spectrum SPF 15 Nude Shell; Givenchy PHOTO PERFEXION - Fluid Foundation with sunscreen Broad Spectrum SPF 20 Shade 105 Perfect Ginger; Givenchy PHOTO PERFEXION - Fluid Foundation with sunscreen Broad Spectrum SPF 20 Shade 106 Perfect Pecan; Givenchy PHOTO PERFEXION Fluid Foundation with sunscreen Broad Spectrum SPF 20 Shade 130 Perfect Rose; Givenchy Photo Perfexion Fluid Foundation Broad Spectrum SPF 20 Perfect Almond; Givenchy Photo Perfexion Fluid Foundation Broad Spectrum SPF 20 Perfect Beige; Givenchy Photo Perfexion Fluid Foundation Broad Spectrum SPF 20 Perfect Cinnamon; Givenchy Photo Perfexion Fluid Foundation SPF 20 106 Perfect Pecan; Givenchy Photo Perfexion Fluid Foundation SPF 20 Perfect Amber Tint 8; Givenchy Photo Perfexion Fluid Foundation SPF 20 Perfect Cashew Tint 5.5; Givenchy Photo Perfexion Fluid Foundation SPF 20 Perfect Gold Tint 7; Givenchy Photo Perfexion Fluid Foundation SPF 20 Perfect Honey Tint 6; Givenchy Photo Perfexion Fluid Foundation SPF 20 Perfect Ivory Tint 1; Givenchy Photo Perfexion Fluid Foundation SPF 20 Perfect Linen Tint 0; Givenchy Photo Perfexion Fluid Foundation SPF 20 Perfect Petal Tint 2; Givenchy Photo Perfexion Fluid Foundation SPF 20 Perfect Praline Tint 5; Givenchy Photo Perfexion Fluid Foundation SPF 20 Perfect Sand Tint 3; Givenchy Photo Perfexion Fluid Foundation SPF 20 Perfect Spice Tint 9; Givenchy Photo Perfexion Fluid Foundation SPF 20 Perfect Suede Tint 6.5; Givenchy Photo Perfexion Fluid Foundation SPF 20 Perfect Vanilla Tint 4; Glamtox Active Daily Moisturizing Sunscreen; Glamtox Eye; Glamtox SPF 18; Glaxal Base Lotion SPF 15; Glazewear SPF/fps 15 Lip Gloss; Glosswear and Brush Spf8 - Crm 2%; Glossworks Lip Gloss; Glove Me Tender Hand Cream With Shea Butter SPF 15; Gloves in a Bottle with SPF15; Glow From Within Moisturizer SPF 15; Glow and Steady Daily Moisturizer and Gradual Self Tanner SPF 15 for Body; Gly Derm Super Sunblock; Glymed Plus Age Management Skincare System Sun Protection Gel SPF 15; Glysomed Face Moisturizer; Glytone Body; Glytone Clarifying SunVanish with Sunscreen; Glytone Essentials Rejuvenate daily; Glytone Retexturize Body; Glytone Sunscreen SPF 40; Glytone essentials rejuvenate daily; Goat Milk and Lavender Sun for Baby SPF 20 Pa Plus Plus; Goats Milk Lait de Chevre; Gold Collagen Ampoule Cover Cake SPF 50; Gold Collagen Ampoule Cover Cake Spf50 N203; Gold Collagen Ampoule Two-way Compact Foundation Spf30; Gold Collagen Foundation Spf30; Gold Collagen N203 Natural Beige Spf30; Golden Beauty - Summer Face SPF 15; Golden Beauty-compact Bronzer SPF 30; Golden Tan Always Color Stay-On Makeup SPF 10; Golden Tan Always Stay-on Makeup Broad Spectrum SPF 15 Jafra; Goldkiwi Sun SPF 36 Pa Plus Plus; Goldkiwi Sun SPF 50 Plus Pa Plus Plus Plus; Goldkiwi Sun Spf50 Plus Pa Plus Plus; Golfer Block Sunscreen for Golfers; Golfers Skin Broad Spectrum SPF 30 Plus Sunscreen; GolfersSkin Sunscreen Lip Balm; GolfersSkin Sunscreen Zinc; Golflinks Sunscreen SPF 15 Crm Top; Gongjinhyang Mi Luxury Foundation 2; Good Afternoon Berry Berry Tea Bb Spf35 Pa Plus Plus No.1; Good Afternoon Berry Berry Tea Bb Spf35 Pa Plus Plus No.2; Goofy Sun Smacker SPF 24 Berry Goal; Got The Goods Multi-benefit Foundation Lotion; Got To Glow Gradual Glow Body Moisturizer Lotion; Got2b Spa Defense; Gowoonsesang Expert Actifirm Tm Recovery Super Blemish Base Spf30 Pa Plus Plus; Gowoonsesang Perfect Pore Cover Bb SPF 30 Pa Plus Plus; Gradual Glow Sunless Tanning Milk Broad Spectrum Sunscreen SPF 35; Grapefruit SPF 30 Broad Spectrum; Green Stick; Gretchen Bleiler's Sweet Vanilla Lip Balmer SPF 15; Guava Mango Sport SPF 30 Broad Spectrum; Gucci Face Lustrous Glow Foundation Broadspectrum SPF 25 (all shades); H-E-B Skin Corrective Innovative Skin Perfector BB Broad Spectrum SPF15 Sunscreen Light/Medium; H-E-B Skin Corrective Innovative Skin Perfector BB Broad Spectrum SPF15 Sunscreen Medium/Deep; HAND PERFECTION ANTI-AGING SKINCARE nourishing day SPF 15; HANSKIN AIR BOUNCE CUSHION BB No 21 Light Beige; HANSKIN AIR BOUNCE CUSHION BB No 23 Natural Beige; HYDRALIFE BB CREME Enhancing Moisturizer For Immediate Beauty SPF 30; Halo Hd Foundation Broad Spectrum SPF 15 Oil Free; Hand Care Day care Broad Spectrum SPF 15 Jafra; Hand Complex Broad Spectrum SPF 15 Jafra; Hand Cream Intensive Anti-ageing SPF 15; Hand Cream SPF 10; Hand Cream With Sunscreen SPF 4 2.5%; Hansai Beestox Sun Cream SPF 50; Hansai Beestox Trial Kit Set Beestox Sun Cream; Hanskin Bio Origin Royal Ampoule Bb EX; Hanskin Cell Cover Foundation No 21 Light Beige; Hanskin Cell Cover Foundation No 23 Natural Beige; Hanskin Premium Perfect Super Magic Bb; Hanskin nontouring gradation pact L21 fair Edge cover balm; Hanskin nontouring gradation pact L21 fair Serum cover balm; Hanskin nontouring gradation pact M22 nude Edge cover balm; Hanskin nontouring gradation pact M22 nude Serum cover balm; Happyderm SPF 15 Peaux Normales A Grasses; Happyderm SPF 15 Peaux Normales A Seches; Hard Candy Correction Creme; Harmon Face Values Revitalizing Age Control Anti-Sagging Ultra Hydrating Day SPF 15; Harmon Face Values Revitalizing Day Cream; Harmony Dynamics Facial Boosting SPF 15; Have A Nice Day Super Charged SPF 15; Hawaiian Tropic 10 Plus Lotion; Hawaiian Tropic 10 Plus Sunscreen; Hawaiian Tropic 15 Plus Sunblock; Hawaiian Tropic 15 Plus Sunblock Lotion; Hawaiian Tropic 30 Plus Lotion; Hawaiian Tropic 30 Plus Sunblock Lotion; Hawaiian Tropic 30 SPF Splash Sunblock; Hawaiian Tropic 45 Plus Lotion; Hawaiian Tropic 45 Plus Sunblock Lotion; Hawaiian Tropic 45 SPF Sunblock Stick; Hawaiian Tropic Baby Faces 35 Lot; Hawaiian Tropic Baby Faces 50 - Lot; Hawaiian Tropic Baby Faces 50 SPF; Hawaiian Tropic Baby Faces 50 Sunblock Lot; Hawaiian Tropic Baby Faces Sunblock SPF 35; Hawaiian Tropic Bioshield 30 SPF Sensitive; Hawaiian Tropic Bioshield Fac. Sunb.15spf Sn; Hawaiian Tropic Bioshield Fac.sunb.15spf Nor; Hawaiian Tropic Dark Tan.oil W.ext.sunscreen; Hawaiian Tropic Dark Tanning Lotion 4 SPF; Hawaiian Tropic Dark Tanning Oil 4 SPF; Hawaiian Tropic Herbal Aloe 45 SPF Lip Balm; Hawaiian Tropic Herbal Tanning Lotion 4 SPF; Hawaiian Tropic Island Sport Sunscreen Lotion écran Solaire 30; Hawaiian Tropic Just for Kids 30 - Lot; Hawaiian Tropic Lip Balm 45 SPF-cherry; Hawaiian Tropic Lip Balm 45 SPF-coconut; Hawaiian Tropic Lip Balm 45 SPF-mint; Hawaiian Tropic Lip Balm SPF 45 Cherry; Hawaiian Tropic Oil Free Sport 30 SPF Sunblock; Hawaiian Tropic Oil Huile Sunscreen Spray écran Solaire En Vaporisateur 4; Hawaiian Tropic Protective Tanning Dry Oil 8 SPF; Hawaiian Tropic Protective Tanning Lotion 8 SPF; Hawaiian Tropic Protective Tanning Spray Oil 12 SPF; Hawaiian Tropic SPF 30 Splash for Kids Sunblock; Hawaiian Tropic SPF 45 Plus Uva/uvb Protection Sunblock Stick; Hawaiian Tropic Splash 30 SPF Sunblock Spray; Hawaiian Tropic Sport 30 SPF Sunblock Spray; Hawaiian Tropic Sport 8 SPF Sunscreen; Hawaiian Tropic Sport SPF 15; Hawaiian Tropic Sport SPF 30; Hawaiian Tropic Sunblock Lip Balm SPF 45; Hawaiian Tropic Sunblock Sport 30 Lot; Hawaiian Tropic Sunblock Stick Splash SPF 50; Hawaiian Tropic Total Sport Lotion 20 SPF; Healthy Makeup; Healthy Makeup Lip Conditioner; Healthy Makeup Lip Conditioner / Revita-Lèvres SPF/fps 15; Healthy Makeup Lip Cream/crème Pour Les Lèvres SPF/fps 15; Healthy Makeup Lipstick/rouge à Lèvres SPF/fps 15; Healthy Skin Cc Cream SPF 30; Healthy Skin Facial Lotion SPF 15; Healthy Skin Instant Tone Corrector; Healthy Skin Protection; Healthy Skin Radiance; Healthy Wear Powder Foundation SPF 50; Healthy Wear Pressed Bronzer SPF 50; Healthy Wear Tinted Moisturizer SPF 50; Heat Wave Sunblock SPF 30; Hello Flawless Oxygen Wow; Herbal Day Creme SPF 15; Herbal Serenity Age Defying Hand Treatment SPF 15; Herpecin; Herpecin L; Hidden Beauty Daytime Moisturizer Sunscreen SPF 15; High Altitude Adventure Sunscreen; High Altitude Apres; High Definition Foundation; High Impact Lip Colour SPF 15; High Protection Emulsion; High Protection Lotion; High Protection Sun Air Spray SPF50 PA; High Protection Sun SPF 30; High Resolution; Homme Aqua Sun Block SPF50 Plus PA 2Plus; Homme Daily Moisturizing Lotion SPF 15; Honey Lip Care; Honey Stick Lip Balm; Hope In A Jar For Dry Skin SPF broad spectrum spf 20 sunscreen and extra-rich moisturizer for normal to dry skin; Hope In A Tinted Moisturizer; Hope Oil Free Moisturizer SPF 30; Hourglass Equilibrium Day Fluid SPF 30; Hourglass Illusion Tinted Moisturizer Beige SPF 15; Hourglass Illusion Tinted Moisturizer Ivory SPF 15; Hourglass Illusion Tinted Moisturizer Light Beige SPF 15; Hourglass Illusion Tinted Moisturizer Sand SPF 15; Hourglass Illusion Tinted Moisturizer Warm Beige SPF 15; Huile De Super Bronzante No.43; Huile Solaire - Liq Top 2%; Huile Solaire Bronzage Intensif SPF 3; Huile Solaire Bronzage Tres Rapide Special Corps Et Protection Des Cheveux SPF 4; Huile Solaire Bronzante; Huile Soleil - Liq Top 4%; Hyaluronic Filler Serum; Hydra Advance Creme Autobronzante Fps 10-crm; Hydra Advance Solaire Ecran Total Fps 25; Hydra Advance Solaire Lait SPF 15; Hydra Advance Solaire Lait SPF 25; Hydra Advance Solaire Lait Solaire SPF 8; Hydra Bronze; Hydra Finish SPF 15; Hydra Hand Cream SPF 15; Hydra Intensive Blemish Balm SPF30 PA; Hydra Life Base De Teint Serum; Hydra Life Bb Creme; Hydra Life CRème Pro-jeunesse Avec Protection Uva/uvb; Hydra Life Fluide Pro-jeunesse Avec Protection Uva/uvb; Hydra Life Pro-youth Skin Tint 1; Hydra Life Pro-youth Skin Tint 2; Hydra Life Pro-youth Skin Tint 3; Hydra Life Soin Teinté Pro-jeunesse; Hydra Life Water BB SPF 30 Shade 010; Hydra Life Water BB SPF 30 Shade 020; Hydra Life Water BB SPF 30 Shade 030; Hydra Moisturizing Lotion SPF 30; Hydra Move Creme Teintee; Hydra Perfecte SPF 10 Crm 4%; Hydra Perfecte SPF 12; Hydra Vãgãtal CRãme Hydratante Fps 25; Hydra-C Radiance 24h + SPF 15 Fps Hydrating Lotion Lotion Hydratante; Hydra-C Radiance 24h + SPF 15 Fps Moisturizing Cream Dry Skin CRème Hydratante Peaux Sèches; Hydra-C/ Radiance 24h Plus SPF 15 Fps/ Moisturizing Cream Normal Skin/crème Hydratante Peaux Normales; Hydra-bronze   (SPF 15); Hydra-firm Day Lotion SPF-15; Hydra-move Dynamic Moisture Booster SPF 10; Hydra-radiance Moisturizing Day Lotion Lotion De Jour Hydratante SPF/fps15; Hydra-radiance Protecting Day Lotion Lotion De Jour Protectrice SPF/fps30; Hydra-seal SPF 25 / Hydra-scellante SPF 25; Hydraction Visible Defense Creme Legere Hydra-protectrice SPF 20; Hydraction Visible Defense Creme Riche Hydra-protectrice SPF 20; Hydraction Visible Defense Creme Yeux Hydra-protectrice SPF 20; Hydrafresh Gel-creme Normal To Dry Skin; Hydrafresh Gel-creme Normal To Oily Skin; Hydralife Youth Essential Hydrating Essence-IN-base SPF 30; Hydramax + Active Teinté; Hydramax + Teinte Emulsion Source D'hydratation; Hydramax Active Teinte SPF 15; Hydrance Optimale SPF 25; Hydraphase Uv; Hydraphase Uv Eyes; Hydraphel Day Cream SPF 15; Hydraphel Day SPF15; Hydrasilk Day & Night Cream SPF 12; Hydrasilk Eye Cream SPF 12; Hydrating Day Creme SPF 15; Hydrating Facial SPF-30; Hydrating Tinted Nourisher; Hydrating day moisture broad spectrum SPF15 Jafra; Hydration Dynamics Moisture Replenishment SPF 15; Hydrator Plus SPF 30; Hydro Urgency Fluide SPF 15; Hydro and Pore BB; Hydrofirming Lifting Day Cream SPF 15 Creme De Jour Lifting Fps 15; Hydrofirming-lift Day Cream SPF 15; Hydromarine Extreme; I-max Excellence; INTELLIGENT BEAUTY LABS Age Defying Day Broad Spectrum SPF 20; IOPE AIR CUSHION Cover 13 Ivory; IOPE AIR CUSHION Cover 21 Vanilla; IOPE AIR CUSHION Cover 23 Beige; IOPE AIR CUSHION Natural 13 Ivory; IOPE AIR CUSHION Natural 21 Vanilla; IOPE AIR CUSHION Natural 23 Beige; IOPE Air Cushion Blusher no 1; IOPE Air Cushion Blusher no 2; IOPE Air Cushion Sunblock EX; IOPE CC no. 1; IOPE CC no. 2; IOPE Perfect Skin 1; IOPE Perfect Skin 2; IOPE Perfect Skin Base; IOPE Perfect Skin Foundation no 21; IOPE Perfect Skin Foundation no 23; IOPE S.S. CONDITIONING COLOR BASE No.40 SPF22 PA PLUS; IOPE S.S. CONDITIONING COLOR BASE No.60 SPF22 PA PLUS; IPKN ARTISTS TOUCH BB 02 Medium; IPKN MOIST AND FIRM BB 02 Light; IPKN Moist and Firm BB 01 Light; IPKN Moist and Firm BB 02 MEDIUM; IPKN Moist and Firm BB 02 Medium; IPKN Moist and Firm BB 03 Light Medium; IPKN Moist and Firm BB 04 Medium; IPKN Pore Apple Sun Block; IPKN Twinkle Flash Cream; IPKN Twinkle Velvet Founcushion 21; IPKN Twinkle Velvet Founcushion 23; IQ Derma Essentials Life Without Wrinkles SPF 25; IQ Derma regiMEN Hydrating UV Shield SPF 25; IQQU Advance Sunscreen; IQueen CCC Dark; IQueen CCC Light; IQueen CCC Medium; Ice Elements SPF 15 Moisturizer; Iced Pear SPF 15 Broad Spectrum Lip Balm; Idc Fps/SPF 15; Idc Fps/SPF 30; Ideal Flawless CC Color Corrector; Ideal Flawless Cc Color Corrector Cream; Ideal Flawless Invisible Coverage Cream To Powder Foundation; Ideal Flawless Tinted Moisturizer; Ideal Flawless Tinted Moisturizer Lotion; Ideal Shade Cream-TO-powder Foundation Fond De Teint Creme-poudre SPF/fps 15; Ideal Shade Custom Shade Foundation Lotion; Ideal Shade Mousse Foundation Stick Stick Fond De Teint Mousse SPF/fps 10; Ideal Shade Tinted Moisturizer Hydratant Teinté SPF/fps 15; Idole Beauty; Idole Intense; Idole Lemon; Idole Natural Organic; Idole Natural Organic Skin Lightening; Idole Skin Lightening; Illumikate Cc Cream SPF 50; Illuminating Daily Moisturizer SPF 15; Illuminating Finish Compact Foundation SPF 12; Illuminating Protective Primer SPF 12; Illusion Tinted Moisturizer Broad Spectrum Beige SPF 15; Illusion Tinted Moisturizer Broad Spectrum Golden SPF 15; Illusion Tinted Moisturizer Broad Spectrum Golden Tan SPF 15; Illusion Tinted Moisturizer Broad Spectrum Honey SPF 15; Illusion Tinted Moisturizer Broad Spectrum Ivory SPF 15; Illusion Tinted Moisturizer Broad Spectrum Light Beige SPF 15; Illusion Tinted Moisturizer Broad Spectrum Nude SPF 15; Illusion Tinted Moisturizer Broad Spectrum Sable SPF 15; Illusion Tinted Moisturizer Broad Spectrum Sand SPF 15; Illusion Tinted Moisturizer Broad Spectrum Shell SPF 15; Illusion Tinted Moisturizer Broad Spectrum Vanilla SPF 15; Illusion Tinted Moisturizer Broad Spectrum Warm Ivory SPF 15; Image Md Reconstructive Moisturizer SPF 50; Iman Perfect Response Oil-free Cover-UP Makeup; Iman Perfect Response Oil-free Hydrating Lotion; Iman Second To None Oil-free Makeup SPF 8; Iman Skin Tone Evener BB SPF 15; Iman Sun Defense Lip and Eye Stick; Iman Sun Defense Lotion SPF 25; Iman Time Control All Day Moisture Complex SPF 15; Iman Time Control Oil Free Moisture Complex SPF 15; Imanance Mat SPF 15; Imanance SPF 15 - Crm Top; Immortelle Brightening Hand Care SPF 15; Impact Fix Essence Make Up Base SPF 10 / UVB Protection; Impact Fix Essence Make Up Base SPF 10, No. 1; Impact Fix Prism Two Way Cake Broad Spectrum SPF 24; Impact Fix Prism Two Way Cake SPF 24, No. 23; Impact Fix Prism Two Way Cake SPF 24, No. 33; Impact Fix Pure Essence Foundation Broad Spectrum SPF 20; Impact Fix Pure Essence Foundation SPF 20, No. 23; Impact Fix Pure Essence Foundation SPF 20, No. 35; In An Instant Daily Tinted Moisturizer SPF 15; In Transit Skin Defence; Indefense30; Industrial Strength Sunscreen; Infinite Bronze Easy Face Bronzer Brush With 12 SPF Sunscreen; Infinity; Innovative Skin Perfector BB Broad Spectrum SPF15 Sunscreen (Light/Medium); Inspired by Color Lemon Lime SPF 30; Intensive 3-IN-1 Day Cream SPF 30; Intensive Cover Blemish Balm; Intensive Day Defense SPF 15; Intensive Line Filler Comble-ridules Intensif SPF/fps 15; Intensive Lip Moisturizer SPF 15; Intensive Skin Serum Foundation Broad Spectrum SPF 40; Intervene Daily Moisture SPF 15 Oil Free; Intervene Makeup Broad Spectrum Sunscreen SPF 15 Soft Cameo; Intervene Makeup Broad Spectrum Sunscreen SPF 15 Soft Cognac; Intervene Makeup Broad Spectrum Sunscreen SPF 15 Soft Cream; Intervene Makeup Broad Spectrum Sunscreen SPF 15 Soft Tan; Intervene Makeup SPF 15; Intervene Makeup SPF 15 Soft Beige; Intervene Makeup SPF 15 Soft Bisque; Intervene Makeup SPF 15 Soft Bronze; Intervene Makeup SPF 15 Soft Cocoa; Intervene Makeup SPF 15 Soft Honey; Intervene Makeup SPF 15 Soft Porcelain; Intervene Makeup SPF 15 Soft Sand; Intervene Makeup SPF 15 Soft Shell; Intervene Makeup SPF 15 Soft Sunbeige; Intervene Makeup SPF 15 Soft Toast; Intervene Makeup SPF 15 Soft Toffee; Intervene Makeup SPF 15 Soft Wheat; Intervene Radiance Boosting Moisture SPF 15; Ion de Cushion Cover Beige ICCB; Ion de Cushion Cover Light Beige ICCLB; Ion de Cushion Natural Beige ICNB; Ion de Cushion Natural Light Beige ICNLB; Iope Air Cushion Flawless 13c; Iope Air Cushion Flawless 21n; Iope Air Cushion Flawless 21w; Iope Air Cushion Flawless 23n; Iope Air Cushion Flawless 23w; Iope Air Cushion Matte Longwear C13; Iope Air Cushion Matte Longwear N21; Iope Air Cushion Matte Longwear N23; Iope Air Cushion Matte Longwear W21; Iope Air Cushion Matte Longwear W23; Iope Air Cushion Perfection C13; Iope Air Cushion Perfection N21; Iope Air Cushion Perfection N23; Iope Air Cushion Perfection W21; Iope Air Cushion Perfection W23; Iope Air Cushion Sheer 13c; Iope Air Cushion Sheer 21n; Iope Air Cushion Sheer 21w; Iope Air Cushion Sheer 23n; Iope Air Cushion Sheer 23w; Iope Air Cushion Xp; Iope Air Cushion Xp Cover Beige Broad Spectrum Spf50plus; Iope Air Cushion Xp Cover Light Vanilla; Iope Air Cushion Xp Cover Vanilla Broad Spectrum Spf50plus; Iope Air Cushion Xp Intense Cover Beige; Iope Air Cushion Xp Intense Cover Vanilla; Iope Air Cushion Xp Matte Beige; Iope Air Cushion Xp Matte Light Vanilla; Iope Air Cushion Xp Matte Vanilla; Iope Air Cushion Xp Natural 31; Iope B.B. Spf20/pa Plus; Iope B.b Bb; Iope Brightgen; Iope Perfect Skin Cover Cake 21 Light Beige; Iope Perfect Skin Cover Cake 23 Natural Beige; Iope Perfect Skin Fondation; Iope Retigen Essence Dual Concealer; Iope Retigen Glow Cover Cake No.21; Iope Retigen Glow Cover Cake No.23; Iope Retigen Luminous Base; Iope Retigen Moisture Base Natural Green; Iope Retigen Moisture Base Natural Yellow; Iope Retigen Moisture Foundation No.17 Spf22 Pa Plus; Iope Retigen Moisture Foundation No.21 Spf22 Pa Plus; Iope Retigen Moisture Foundation No.23 Spf22 Pa Plus; Iope Retigen Moisture Twin Cake No.17; Iope Retigen Moisture Twin Cake No.21; Iope Retigen Moisture Twin Cake No.23; Iope Retigen Smoothing Pact No.1 Spf25 Pa Plus Plus; Iope Retigen Smoothing Pact No.2 Spf25 Pa Plus Plus; Iope Ss Conditioning Foundation No.13 Spf22 Pa Plus; Iope Ss Conditioning Foundation No.21 Spf22 Pa Plus; Iope Ss Conditioning Foundation No.23 Spf22 Pa Plus; Iope Ss Conditioning Foundation No.31 Spf22 Pa Plus; Iope Ss Conditioning Twincake No.13 Spf25 Pa Plus Plus; Iope Ss Conditioning Twincake No.21 Spf25 Pa Plus Plus; Iope Ss Conditioning Twincake No.23 Spf25 Pa Plus Plus; Iope Ss Conditioning Twincake No.31 Spf25 Pa Plus Plus; Iope Super Vital Extra Moist B.b; Iope Super Vital Extra Moist Base; Iope Super Vital Extra Moist Foundation No. 21 Spf12 Pa Plus; Iope Super Vital Extra Moist Foundation No. 23 Spf12 Pa Plus; Iope Super Vital Extra Moist Twin Pact No. 21 Spf25 Pa Plus Plus; Iope Super Vital Extra Moist Twin Pact No. 23 Spf25 Pa Plus Plus; Ipkn Artists Touch Bb 01 Light; Ipkn Artists Touch Bb 02 Medium; Ipkn Hydro and Pore Bb 01 Light; Ipkn Hydro and Pore Bb 02 Medium; Ipkn Moist and Firm Bb 01 Fair; Ipkn Moist and Firm Bb 05 Medium Tan; Isa Knox 365 Sun; Isa Knox Ageless Moist Serum Two Way Cake 21 (refill); Isa Knox Ageless Moist Serum Two Way Cake 23 (refill); Isa Knox Ageless Serum Makeup Base 10; Isa Knox Smart Bb Sun; Isaknox Ageless Serum Blemish Balm; Isaknox Ageless Serum Compact 23; Isaknox Ageless Serum Moist Pearl Base; Isaknox Suncare 365 Advanced Sun; Island Life; Islander Spf6; It Radiant CC Color Base Lavender; It Radiant CC Color Base Mint; It Radiant CC Color Base Rose; It Radiant CC Cover Light Beige; It Radiant CC Cover Natural Beige; It Radiant Cc; It Radiant Cc Cushion Be10; It Radiant Cc Cushion Be20; It Radiant Cc Cushion Bp15; It Radiant Cc In Melting Foundation Be10; It Radiant Cc In Melting Foundation Be15; It Radiant Cc In Melting Foundation Be20; It Radiant Glow Bb Classic Beige; It Radiant Glow Bb True Beige; It Radiant Multiple Cc for Man; Ivory Always Color Stay-On Makeup SPF 10; Ivory Always color stay-on Makeup Broad Spectrum SPF 15 Jafra; Ivory Expert Finish Makeup Broad Spectrum SPF 25 Merle Norman; Ivory Moisturizing Makeup Broad Spectrum SPF 15 Jafra; Ivory Oil Controlling Makeup Broad Spectrum SPF 15 Jafra; Ivory Perfecting Makeup Broad Spectrum SPF 25 Merle Norman; Ivory Silk's Whitening Essence for Day Use; J and R Perfect Essence Beblesh Balm (40mL); JUNGSAEMMOOL Essential Skin Nuder Cushion Light; JUNGSAEMMOOL Essential Skin Nuder Cushion Medium; JUNGSAEMMOOL Essential Skin Nuder Cushion Medium Deep; JUNGSAEMMOOL Essential Star cealer Foundation Fair Light; JUNGSAEMMOOL Essential Star cealer Foundation Light; JUNGSAEMMOOL Essential Star cealer Foundation Medium; JUNGSAEMMOOL Essential Star cealer Foundation Medium Deep; Jacket SPF 50; Jafra Always Color Stay-on Makeup SPF 10; Jafra Always color stay on makeup SPF 10; Jafra Brightening Brightening SPF 15; Jane Seymour Natural Advantage AM SPF 15 All Day Moisture with AHAs; Jason Pure Natural Sun Family Natural Sunscreen Broad Spectrum SPF45; Jason Pure Natural Sun Kids Natural Sunscren Broad Spectrum SPF45; Jason Pure Natural Sun Sport Natural Sunscreen Broad Spectrum SPF45; Jason Sun Family Sunscreen Broad Spectrum SPF45; Jason Sun Kids Sunscreen Broad Spectrum SPF45; Jason Sun Sport Sunscreen Broad Spectrum SPF45; Jazzy Jellies - Lip Twist; Jergens Natural Glow; Jergens Natural Glow Daily Facial Moisturizer; Johnson's Baby Lotion SPF 15; Johnson's Ph5.5 Triple Effect Fluid SPF 15; Journee; Journee Bio-restorative Day Cream Broad-spectrum Sunscreen SPF 30; Journee Riche Bio-restorative Day Balm Broad-spectrum Sunscreen SPF 30; Juicy Lip Balm SPF 15; Julep Lip Shade Sheer Lip Butter Almond Nude SPF 30; Julep Lip Shade Sheer Lip Butter Crimson SPF 30; Julep Lip Shade Sheer Lip Butter Currant SPF 30; Julep Lip Shade Sheer Lip Butter Dahlia SPF 30; Julep Lip Shade Sheer Lip Butter Lace SPF 30; Julep Lip Shade Sheer Lip Butter Macaroon SPF 30; Julep Lip Shade Sheer Lip Butter Petal SPF 30; Julep Lip Shade Sheer Lip Butter Plumeria SPF 30; Julep Lip Shade Sheer Lip Butter Poppy SPF 30; Julep Lip Shade Sheer Lip Butter Primrose SPF 30; Julep Lip Shade Sheer Lip Butter Raisin SPF 30; Jungle Mania Sunblock Lotion SPF 15; Jurlique SPF40 High Protection Sunscreen; Jurlique Sun Sunscreen SPF 30; Just for Kids 30 SPF; KISS MY FACE SUNSCREEN COOL SPORT broad spectrum spf 30; KISS MY FACE SUNSCREEN TATTOO SHADE broad spectrum spf 30; KISS MY FACE SUNSCREEN face factor broad spectrum spf 30; KISS MY FACE SUNSCREEN sun broad spectrum spf 30; KLAVUU BLUEPEARLSATION High Coverage Marine Collagen Aqua Cushion 21; KLAVUU BLUEPEARLSATION High Coverage Marine Collagen Aqua Cushion 23; KLAVUU RED PEARLSATION UV Protection City Defencer SPF50; KLAVUU WHITE PEARLSATION Ideal Actress Backstage Cream SPF30; Kandesn 2000 Protective Eml SPF 25; Kara Vita Moisturizing Sunscreen SPF 15; Kara Vita Moisturizing Sunscreen With Dnarescue; Kara Vita SPF 29; Kara Vita SPF 30; Karanja Tree Sunshield SPF 30 Molton Brown Skin Care; Karavita Face Essential with SPF 15; Karavita Secret Code DNA Rescue Lip Care; Kelo-cote Uv SPF 30; Keri Daily Uvb/a Protection Lotion; Keri Skin Renewal; Key West Tan SPF15; Kicho Cc; Kicho Correct Control; Kid's SPF 30; Kid's Sun Screen; Kid's Sunscreen SPF 30 Lotion; Kid's Sunscreen SPF 46; Kid's Ultra Sunblock Lotion SPF 30; Kids 30 SPF Sunblock Lotion; Kids 45 SPF Sunscreen Spray; Kids Easy Block Spray SPF 30+; Kids Lotion SPF 30; Kids SPF 30 Spray; Kids SPF 30+ Spray-ON Sunscreen; Kids SPF 30+ Sunscreen; Kids Sunblock Lotion 30 SPF; Kids Sunscreen; Kids Sunscreen Vaporisateur écran Solaire Spray 45 SPF.fps; Kids Tear Free Sans Larmes Sunscreen Lotion écran Solaire Pour Enfants SPF Fps 50; Kids Tear Free Sans Larmes Sunscreen Spray écran Solaire En Vaporisateur Pour Enfants SPF Fps 50; Kids Tear Free/ Sans Larmes Sunscreen Lotion/lotion écran Solaire Pour Enfants SPF Fps 60; Kids Tear Free/ Sans Larmes Sunscreen Spray écran Solaire En Vaporisateur Pour Enfants SPF Fps 60; Kids Ultra Sun Block Lotion SPF 30; Kids' Sunscreen Broad Spectrum SPF 60 Lotion; Kidsport; Kiehls Since 1851 Butterstick Lip Treatment Broad Spectrum SPF 25 Sunscreen; Kiko Milano Bright Lift Day; Kiko Milano Bright Lift Matte; Kiko Milano Hydra Pro Day; Kiko Milano Sublime Youth Day; Kiko Milano Unlimited Foundation; Kinerase BB Cream with Kinetin; Kinesys Broad Spectrum SPF 15 Alcohol-free Sunscreen; Kinesys Broad Spectrum SPF 30 Alcohol-Free Performance Sunscreen - Fragrance Free; Kinesys Broad Spectrum SPF 30 Alcohol-Free Performance Sunscreen Fragrance-Free; Kinesys Broad Spectrum SPF 30 Alcohol-Free Sunscreen; Kinesys Broad Spectrum SPF 30 Alcohol-Free Sunscreen - Mango Scent; Kinesys Broad Spectrum SPF 30 Girl Alcohol-Free Sunscreen; Kinesys Broad Spectrum SPF 30 KiDS Alcohol-Free Sunscreen; Kinesys Broad Spectrum SPF 30 Kids Alcohol-Free Sunscreen; Kinesys Broad Spectrum SPF 30 girl Alcohol-Free Sunscreen; Kinesys Broad Spectrum SPF 50 Alcohol Free Sunscreen; Kinesys SPF 30 Solid Sunscreen; Kinesys SPF 30 Sun Stick; Kinesys Sport SPF 30 Oilfree Sunscreen With Mango; Kinesys Sun Protection Stick - Stk; Kiss My Face - Face Factor SPF 30; Kiss My Face - Oat Protein Complex SPF 30; Kiss My Face Bare Naked Broad Spectrum SPF 30; Kiss My Face Cool Sport SPF 50 Broad Spectrum; Kiss My Face Kids Defense Broad Spectrum SPF 50; Kiss My Face SPF 30 Face Stick; Kiss My Face SPF 30 Lip Balm; Kiss My Face SPF 30 Sport Lip Balm; Kiss My Face SPF 30 Sport Treatmint Lip Balm; Kiss My Face Sunblock With Oat Protein Complex SPF 30; Kiss Therapy Lip Balm Baume Pour Les Lèvres SPF 15/ Fps 15; Kiss and Shield Lip Balm Lemon Lime SPF 30; Kiss of Hope Pink Tinted SPF 15; Kiss of Hope SPF 15; Klenskin Broad Spectrum SPF-50; Klenskin Kids Showeron Sunscreen SPF-30; Klenskin Showeron Sunscreen SPF-30; Klenskin Showeron Sunscreen Spa SPF-30; Klenskin Sunbar SPF-20; Korres Suncare Yoghurt Nourishing Fluid Veil Face Sunscreen Broad Spectrum SPF 30; Kroger Dark Tanning Oil SPF 4; Kroger Kids SPF 50 Sunstick; Kroger Moisture SPF 15 Lip Balm; Kroger SPF 4 Tanning Oil; Kroger Sport SPF 50 Sunstick; Kroger Sunscreen SPF 8; L OCCITANE AU BRESIL - JENIPAPO Protecting Body Jelly Milk SPF 20 Broad Spectrum; L OCCITANE AU BRESIL - JENIPAPO Protecting Body SPF 15 Broad Spectrum; L OCCITANE FRESH BODY with Organic Verbena Extract SPF25 Broad Spectrum Sunscreen; L OCCITANE SUBLIME BEAUTY BB LIGHT SPF 30 Broad Spectrum Sunscreen; L OCCITANE SUBLIME BEAUTY BB MEDIUM SPF 30 Broad Spectrum Sunscreen; L Occitane Cade Protective Moisturizing Fluid - for Men Broad Spectrum SPF 20 Sunscreen; L Occitane Immortelle Brightening Hand Care Broad Spectrum SPF 20 Sunscreen; L Occitane Immortelle Precious Protection Broad Spectrum SPF 20 Sunscreen; L'absolu Rouge; L.A. Tan SPF 4 Lotion Filtre Solaire; LA Base L'absolu Rouge; LA Mer The Fluid Foundation SPF 15; LA Mer The Reparative Skin Tint Broad Spectrum SPF 30; LA Mer The Reparative Skin Tint SPF 30; LA Mer The SPF 18 Fluid; LA Mer The SPF 18 Fluid Tint; LA Mer The SPF 30 Uv Protecting Fluid; LA Mer The Soft Fluid Long Wear Foundation SPF 20; LA Mer The Treatment Creme Foundation SPF 15; LA Mer The Treatment Fluid Foundation SPF 15; LANEIGE BB CUSHION HYDRA RADIANCE No.11 Porcelain; LANEIGE BB CUSHION HYDRA RADIANCE No.21 Beige; LANEIGE BB CUSHION HYDRA RADIANCE No.23 Sand; LANEIGE BB CUSHION HYDRA RADIANCE No.33 Cinnamon; LANEIGE BB CUSHION HYDRA RADIANCE No.35 Coffee; LANEIGE BB CUSHION HYDRA RADIANCE No.37 Cacao; LANEIGE BB CUSHION PORE BLUR No.11 Porcelain; LANEIGE BB CUSHION PORE BLUR No.21 Beige; LANEIGE BB CUSHION PORE BLUR No.23 Sand; LANEIGE BB CUSHION PORE BLUR No.33 Cinnamon; LANEIGE BB CUSHION PORE BLUR No.35 Coffee; LANEIGE BB CUSHION PORE BLUR No.37 Cacao; LANEIGE BB Cushion Light; LANEIGE BB Cushion Medium; LANEIGE BB Cushion no.21; LANEIGE BB Cushion no.23; LANEIGE CUSHION CONCEALER No.11 Rose Porcelain; LANEIGE CUSHION CONCEALER No.13 Cool Ivory; LANEIGE CUSHION CONCEALER No.21 Cool Beige; LANEIGE CUSHION CONCEALER No.23 Sand; LANEIGE SKIN VEIL BASE EX No.40 Light Purple; LANEIGE SKIN VEIL BASE EX No.60 Light Green; LANEIGE Skin Veil Foundation EX No. 21N Natural Beige; LANEIGE Skin Veil Foundation EX No. 23 Sand Beige; LANEIGE Skin Veil Foundation EX No. 31 Brown Beige; LANEIGE Snow BB No.1 Brightening BB; LANEIGE Snow BB No.2 Natural BB; LANEIGE SunScreen Triple; LAPCOS Doublet Cover Cushion 01 Rosy Ivory; LAPCOS Doublet Cover Cushion 02 Neutral Beige; LAPCOS Fresh Daily Sun; LAPCOS Lasting Waterproof Sun; LAPCOS Stay With Me Cushion 01 Rosy Ivory; LAPCOS Stay With Me Cushion 02 Neutral Beige; LASHappeal Eye Results with SPF 15; LAURA GELLER BEAUTY SUN KISSED COLOR LIP BALM TRIO BROAD SPECTRUM SPF 15 Pink - Coral - Berry; LAURA GELLER spackle Broad Spectrum SPF 30 protective under make-up primer; LAURA MERCIER TINTED MOISTURIZER SPF 20 Almond; LAURA MERCIER TINTED MOISTURIZER SPF 20 Bisque; LAURA MERCIER TINTED MOISTURIZER SPF 20 Blush; LAURA MERCIER TINTED MOISTURIZER SPF 20 Fawn; LAURA MERCIER TINTED MOISTURIZER SPF 20 Porcelain; LAURA MERCIER TINTED MOISTURIZER SPF 20 Tawny; LAURA MERCIER TINTED MOISTURIZER SPF 20 Walnut; LBEL CLARITE Clarifying Effect Foundation SPF 30; LBEL CLARITE Clarifying Effect Foundation SPF 30 CLAIRE 1- BEIGE; LBEL CLARITE Clarifying Effect Foundation SPF 30 CLAIRE 2- BEIGE; LBEL CLARITE Clarifying Effect Foundation SPF 30 CLAIRE 3- BEIGE; LBEL CLARITE Clarifying Effect Foundation SPF 30 CLAIRE 4- BEIGE; LBEL CLARITE Clarifying Effect Foundation SPF 30 MEDIUM 5- BEIGE; LBEL CLARITE Clarifying Effect Foundation SPF 30 MEDIUM 6- BEIGE; LBEL CLARITE Clarifying Effect Foundation SPF 30 MEDIUM 7- BEIGE; LBEL CLARITE Clarifying Effect Foundation SPF 30 OBSCURE 8- BROWN; LBEL CLARITE Clarifying Effect Foundation SPF 30 OBSCURE 9- BROWN; LBEL Couler Luxe Supreme XP Rosace, Excentrique, Harmonie; LBEL Couler Luxe Supreme XP Sublime, Orange, Sobriete; LBEL Couleur Luxe Rouge Amplifier XP amplifying SPF 15 (AMANDIER) - BROWN; LBEL Couleur Luxe Rouge Amplifier XP amplifying SPF 15 (BOURGOGNE VIF) - BROWN; LBEL Couleur Luxe Rouge Amplifier XP amplifying SPF 15 (CARMINE) - RED; LBEL Couleur Luxe Rouge Amplifier XP amplifying SPF 15 (CHOCOLAT MAJESTIC) - BROWN; LBEL Couleur Luxe Rouge Amplifier XP amplifying SPF 15 (CORAIL MAXIMUM) - ORANGE; LBEL Couleur Luxe Rouge Amplifier XP amplifying SPF 15 (DORE CHOCOLAT) - BROWN; LBEL Couleur Luxe Rouge Amplifier XP amplifying SPF 15 (FIANCEE) - PINK; LBEL Couleur Luxe Rouge Amplifier XP amplifying SPF 15 (FUCSIA DESIR) - MAGENTA; LBEL Couleur Luxe Rouge Amplifier XP amplifying SPF 15 (FUCSIA SPLENDIDE) - MAGENTA; LBEL Couleur Luxe Rouge Amplifier XP amplifying SPF 15 (MALBEC) - BROWN; LBEL Couleur Luxe Rouge Amplifier XP amplifying SPF 15 (MARRON ILLIMITE) - BROWN; LBEL Couleur Luxe Rouge Amplifier XP amplifying SPF 15 (MER DE ROSES) - PINK; LBEL Couleur Luxe Rouge Amplifier XP amplifying SPF 15 (MIEL ECHANTER) - ORANGE; LBEL Couleur Luxe Rouge Amplifier XP amplifying SPF 15 (NOBLESSE) - RED; LBEL Couleur Luxe Rouge Amplifier XP amplifying SPF 15 (ORANGE DELIRANT) - ORANGE; LBEL Couleur Luxe Rouge Amplifier XP amplifying SPF 15 (ROMANCE) - PINK; LBEL Couleur Luxe Rouge Amplifier XP amplifying SPF 15 (ROSE CHAMPAGNE) - PINK; LBEL Couleur Luxe Rouge Amplifier XP amplifying SPF 15 (ROSE DAMOUR) - PINK; LBEL Couleur Luxe Rouge Amplifier XP amplifying SPF 15 (ROSE DELICAT) - PINK; LBEL Couleur Luxe Rouge Amplifier XP amplifying SPF 15 (ROSE FEMME) - PINK; LBEL Couleur Luxe Rouge Amplifier XP amplifying SPF 15 (ROSE FUCSIA) - MAGENTA; LBEL Couleur Luxe Rouge Amplifier XP amplifying SPF 15 (ROSE TENTATION) - PINK; LBEL Couleur Luxe Rouge Amplifier XP amplifying SPF 15 (ROUGE GRANDOISE) - RED; LBEL Couleur Luxe Rouge Amplifier XP amplifying SPF 15 (ROUGE INTENSE) - RED; LBEL Couleur Luxe Rouge Amplifier XP amplifying SPF 15 (ROUGE PRODIGEUX) - RED; LBEL Couleur Luxe Rouge Amplifier XP amplifying SPF 15 (ROUGE PROVOCATION) - RED; LBEL Couleur Luxe Rouge Amplifier XP amplifying SPF 15 (ROUGE RUBI) - RED; LBEL Couleur Luxe Rouge Amplifier XP amplifying SPF 15 (SAUMON ESSENTIEL) - PINK; LBEL Couleur Luxe Rouge Amplifier XP amplifying SPF 15 (SOBRIETE) - BROWN; LBEL Couleur Luxe Rouge Amplifier XP amplifying SPF 15 (VIOLET POURPRE) - PURPLE; LBEL Couleur luxe rouge irresistible maximum hydration SPF 17 (CAPUCCINO) - PURPLE; LBEL Couleur luxe rouge irresistible maximum hydration SPF 17 (FUCHSIA BRILLANCE) - RED; LBEL Couleur luxe rouge irresistible maximum hydration SPF 17 (FUCHSIA INTENSE) - PURPLE; LBEL Couleur luxe rouge irresistible maximum hydration SPF 17 (MANDARINE) - PURPLE; LBEL Couleur luxe rouge irresistible maximum hydration SPF 17 (MOKA) - PINK; LBEL Couleur luxe rouge irresistible maximum hydration SPF 17 (ROJO VIF) - BROWN; LBEL Couleur luxe rouge irresistible maximum hydration SPF 17 (ROSE BRILLANCE) - RED; LBEL Couleur luxe rouge irresistible maximum hydration SPF 17 (ROSE CLASSIQUE) - RED; LBEL Couleur luxe rouge irresistible maximum hydration SPF 17 (ROSE NATURAL) - BROWN; LBEL Couleur luxe rouge irresistible maximum hydration SPF 17 (ROUGE BRILLANCE) - BROWN; LBEL Couleur luxe rouge irresistible maximum hydration SPF 17 (ROUGE INTENSE) - PURPLE; LBEL Couleur luxe rouge irresistible maximum hydration SPF 17 (VIN) - PURPLE; LBEL DEFENSE 365 Daily Protective Facial SPF 50; LBEL DEFENSE 365 oil-free daily protective facial SPF 50; LBEL DIVINE LIP GLOSS Lip gloss SPF 15 FM Brillo labial FPS 15 FM CARAMEL MELON - BROWN; LBEL DIVINE LIP GLOSS Lip gloss SPF 15 FM Brillo labial FPS 15 FM DOUCE - PINK; LBEL DIVINE LIP GLOSS Lip gloss SPF 15 FM Brillo labial FPS 15 FM GRAPE LUMIERE - PINK; LBEL DIVINE LIP GLOSS Lip gloss SPF 15 FM Brillo labial FPS 15 FM GROSEILLE - BROWN; LBEL DIVINE LIP GLOSS Lip gloss SPF 15 FM Brillo labial FPS 15 FM PECHE - BROWN; LBEL DIVINE LIP GLOSS Lip gloss SPF 15 FM Brillo labial FPS 15 FM SWEET FRAMBOISE - PINK; LBEL DIVINE LIP GLOSS Lip gloss SPF 15 FM Brillo labial FPS 15 FM VIN - BROWN; LBEL DIVINE LIP GLOSS Lip gloss SPF 15 FM Brillo labial FPS 15 FM VIN SENSUELLE - RED; LBEL Defense Total Compact Suncreen SPF 50 For Face - Matte Finish; LBEL EFET PARFAIT Spots Reducing Effect Foundation SPF 18 - CLAIRE 4; LBEL EFET PARFAIT Spots Reducing Effect Foundation SPF 18 - MEDIUM 5; LBEL EFFET PARFAIT HYDRATESS long-lasting intense moisturizing SPF 20 (ALMOND) - BROWN; LBEL EFFET PARFAIT HYDRATESS long-lasting intense moisturizing SPF 20 (AMOUR) - RED; LBEL EFFET PARFAIT HYDRATESS long-lasting intense moisturizing SPF 20 (CHERRY BLOSSOM) - PINK; LBEL EFFET PARFAIT HYDRATESS long-lasting intense moisturizing SPF 20 (CHOCOLAT) - BROWN; LBEL EFFET PARFAIT HYDRATESS long-lasting intense moisturizing SPF 20 (FRENESIE) - PINK; LBEL EFFET PARFAIT HYDRATESS long-lasting intense moisturizing SPF 20 (FUCSIA) - PINK; LBEL EFFET PARFAIT HYDRATESS long-lasting intense moisturizing SPF 20 (LILY BEIGE) - BEIGE; LBEL EFFET PARFAIT HYDRATESS long-lasting intense moisturizing SPF 20 (MALVE) - BROWN; LBEL EFFET PARFAIT HYDRATESS long-lasting intense moisturizing SPF 20 (MANDARINE) - ORANGE; LBEL EFFET PARFAIT HYDRATESS long-lasting intense moisturizing SPF 20 (MARRON GLACE) - BROWN; LBEL EFFET PARFAIT HYDRATESS long-lasting intense moisturizing SPF 20 (MOKA) - BROWN; LBEL EFFET PARFAIT HYDRATESS long-lasting intense moisturizing SPF 20 (NUDE INTIME) - PURPLE; LBEL EFFET PARFAIT HYDRATESS long-lasting intense moisturizing SPF 20 (NUDE) - PINK; LBEL EFFET PARFAIT HYDRATESS long-lasting intense moisturizing SPF 20 (RED EXTASSY) - RED; LBEL EFFET PARFAIT HYDRATESS long-lasting intense moisturizing SPF 20 (RICHE PINK) - PINK; LBEL EFFET PARFAIT HYDRATESS long-lasting intense moisturizing SPF 20 (ROJO CLASIQUE) - PINK; LBEL EFFET PARFAIT HYDRATESS long-lasting intense moisturizing SPF 20 (ROMANCE) - PINK; LBEL EFFET PARFAIT HYDRATESS long-lasting intense moisturizing SPF 20 (ROSE NATURAL) - PINK; LBEL EFFET PARFAIT HYDRATESS long-lasting intense moisturizing SPF 20 (ROUGE INTENSE) - RED; LBEL EFFET PARFAIT HYDRATESS long-lasting intense moisturizing SPF 20 (SOLEIL) - BROWN; LBEL EFFET PARFAIT HYDRATESS long-lasting intense moisturizing SPF 20 (TEA ROSE) - PINK; LBEL EFFET PARFAIT HYDRATESS long-lasting intense moisturizing SPF 20 (TERRE) - BROWN; LBEL EFFET PARFAIT HYDRATESS long-lasting intense moisturizing SPF 20 (TULIP) - PINK; LBEL EFFET PARFAIT HYDRATESS long-lasting intense moisturizing SPF 20 (VIN AMANT) - PURPLE; LBEL EFFET PARFAIT HYDRATESS long-lasting intense moisturizing SPF 20 (VIN) - PURPLE; LBEL EFFET PARFAIT Lip moisturizer SPF 18 FM Hidratante para labios FPS 18 FM; LBEL EFFET PARFAIT Loose extra-fine portable SPF 15 FM PORCELAINE- BEIGE; LBEL EFFET PARFAIT Loose extra-fine portable SPF 15 FM SANTE- BEIGE; LBEL EFFET PARFAIT Loose extra-fine portable SPF 15 FM TRANSLUCIDE- BEIGE; LBEL EFFET PARFAIT MINERAL natural skin effect mousse foundation SPF 16 CLAIRE 1 - BEIGE; LBEL EFFET PARFAIT MINERAL natural skin effect mousse foundation SPF 16 CLAIRE 1- BEIGE; LBEL EFFET PARFAIT MINERAL natural skin effect mousse foundation SPF 16 CLAIRE 2 - BEIGE; LBEL EFFET PARFAIT MINERAL natural skin effect mousse foundation SPF 16 CLAIRE 2- BEIGE; LBEL EFFET PARFAIT MINERAL natural skin effect mousse foundation SPF 16 CLAIRE 3 - BEIGE; LBEL EFFET PARFAIT MINERAL natural skin effect mousse foundation SPF 16 CLAIRE 3- BEIGE; LBEL EFFET PARFAIT MINERAL natural skin effect mousse foundation SPF 16 CLAIRE 4 - BEIGE; LBEL EFFET PARFAIT MINERAL natural skin effect mousse foundation SPF 16 CLAIRE 4- BEIGE; LBEL EFFET PARFAIT MINERAL natural skin effect mousse foundation SPF 16 MEDIUM 5 - BEIGE; LBEL EFFET PARFAIT MINERAL natural skin effect mousse foundation SPF 16 MEDIUM 5- BEIGE; LBEL EFFET PARFAIT MINERAL natural skin effect mousse foundation SPF 16 MEDIUM 6 - BEIGE; LBEL EFFET PARFAIT MINERAL natural skin effect mousse foundation SPF 16 MEDIUM 6- BEIGE; LBEL EFFET PARFAIT MINERAL natural skin effect mousse foundation SPF 16 MEDIUM 7 - BEIGE; LBEL EFFET PARFAIT MINERAL natural skin effect mousse foundation SPF 16 MEDIUM 7- BEIGE; LBEL EFFET PARFAIT MINERAL natural skin effect mousse foundation SPF 16 OBSCURE 8 - BEIGE; LBEL EFFET PARFAIT MINERAL natural skin effect mousse foundation SPF 16 OBSCURE 8- BEIGE; LBEL EFFET PARFAIT Spots Reducing Effect Foundation SPF 18 - CLAIRE 1; LBEL EFFET PARFAIT Spots Reducing Effect Foundation SPF 18 - CLAIRE 2; LBEL EFFET PARFAIT Spots Reducing Effect Foundation SPF 18 - CLAIRE 3; LBEL EFFET PARFAIT Spots Reducing Effect Foundation SPF 18 - CLAIRE 4; LBEL EFFET PARFAIT Spots Reducing Effect Foundation SPF 18 - MEDIUM 5; LBEL EFFET PARFAIT Spots Reducing Effect Foundation SPF 18 - MEDIUM 6; LBEL EFFET PARFAIT Spots Reducing Effect Foundation SPF 18 - MEDIUM 6A; LBEL EFFET PARFAIT Spots Reducing Effect Foundation SPF 18 - MEDIUM 6B; LBEL EFFET PARFAIT Spots Reducing Effect Foundation SPF 18 - MEDIUM 7; LBEL EFFET PARFAIT Spots Reducing Effect Foundation SPF 18 - OBSCURE 10; LBEL EFFET PARFAIT Spots Reducing Effect Foundation SPF 18 - OBSCURE 8; LBEL EFFET PARFAIT Spots Reducing Effect Foundation SPF 18 - OBSCURE 8A; LBEL EFFET PARFAIT Spots Reducing Effect Foundation SPF 18 - OBSCURE 8B; LBEL EFFET PARFAIT Spots Reducing Effect Foundation SPF 18 - OBSCURE 8C; LBEL EFFET PARFAIT filling effect foundation SPF 10 - CLAIRE 1; LBEL EFFET PARFAIT filling effect foundation SPF 10 - CLAIRE 2; LBEL EFFET PARFAIT filling effect foundation SPF 10 - CLAIRE 3; LBEL EFFET PARFAIT filling effect foundation SPF 10 - CLAIRE 4; LBEL EFFET PARFAIT filling effect foundation SPF 10 - MEDIUM 5; LBEL EFFET PARFAIT filling effect foundation SPF 10 - MEDIUM 6; LBEL EFFET PARFAIT filling effect foundation SPF 10 - MEDIUM 7; LBEL EFFET PARFAIT filling effect foundation SPF 10 - OBSCURE 8; LBEL EFFET PARFAIT filling effect foundation SPF 10 - OBSCURE 9; LBEL EFFET PARFAIT signs of age appearance minimizer foundation SPF 20 FM CLAIRE 1 - BEIGE; LBEL EFFET PARFAIT signs of age appearance minimizer foundation SPF 20 FM CLAIRE 2 - BEIGE; LBEL EFFET PARFAIT signs of age appearance minimizer foundation SPF 20 FM CLAIRE 3 - BEIGE; LBEL EFFET PARFAIT signs of age appearance minimizer foundation SPF 20 FM CLAIRE 4 - BEIGE; LBEL EFFET PARFAIT signs of age appearance minimizer foundation SPF 20 FM MEDIUM 5 - BEIGE; LBEL EFFET PARFAIT signs of age appearance minimizer foundation SPF 20 FM MEDIUM 6 - BEIGE; LBEL EFFET PARFAIT signs of age appearance minimizer foundation SPF 20 FM MEDIUM 7 - BEIGE; LBEL EFFET PARFAIT signs of age appearance minimizer foundation SPF 20 FM OBSCURE 8 - BROWN; LBEL EFFET PARFAIT signs of age appearance minimizer foundation SPF 20 FM OBSCURE 9 - BROWN; LBEL ESSENTIAL Deep moisturizing and oxygenating SPF 20 normal to dry skin; LBEL ESSENTIAL Deep moisturizing and oxygenating SPF 20 normal to oily skin; LBEL ESSENTIAL deep moisturizing and oxygenating SPF 20 normal to oily skin; LBEL ESSENTIAL moisturizing and oxygenating SPF 20 normal to dry skin; LBEL Effet Parfait Mineral Natural Skin Effect Mouse Foundation; LBEL HYDRA CALME SPF 15 Intensive Moisturizing Facial; LBEL MOUSSE MATIFFIANT Matte Finish Mousse Foundation SPF 16 Base Textura Mousse Acabado Mate FPS 16 CLAIRE 1 - BEIGE; LBEL MOUSSE MATIFFIANT Matte Finish Mousse Foundation SPF 16 Base Textura Mousse Acabado Mate FPS 16 CLAIRE 1- BEIGE; LBEL MOUSSE MATIFFIANT Matte Finish Mousse Foundation SPF 16 Base Textura Mousse Acabado Mate FPS 16 CLAIRE 2 - BEIGE; LBEL MOUSSE MATIFFIANT Matte Finish Mousse Foundation SPF 16 Base Textura Mousse Acabado Mate FPS 16 CLAIRE 2- BEIGE; LBEL MOUSSE MATIFFIANT Matte Finish Mousse Foundation SPF 16 Base Textura Mousse Acabado Mate FPS 16 CLAIRE 3 - BEIGE; LBEL MOUSSE MATIFFIANT Matte Finish Mousse Foundation SPF 16 Base Textura Mousse Acabado Mate FPS 16 CLAIRE 3- BEIGE; LBEL MOUSSE MATIFFIANT Matte Finish Mousse Foundation SPF 16 Base Textura Mousse Acabado Mate FPS 16 CLAIRE 4 - BEIGE; LBEL MOUSSE MATIFFIANT Matte Finish Mousse Foundation SPF 16 Base Textura Mousse Acabado Mate FPS 16 CLAIRE 4- BEIGE; LBEL MOUSSE MATIFFIANT Matte Finish Mousse Foundation SPF 16 Base Textura Mousse Acabado Mate FPS 16 MEDIUM 5 - BEIGE; LBEL MOUSSE MATIFFIANT Matte Finish Mousse Foundation SPF 16 Base Textura Mousse Acabado Mate FPS 16 MEDIUM 5- BEIGE; LBEL MOUSSE MATIFFIANT Matte Finish Mousse Foundation SPF 16 Base Textura Mousse Acabado Mate FPS 16 MEDIUM 6 - BEIGE; LBEL MOUSSE MATIFFIANT Matte Finish Mousse Foundation SPF 16 Base Textura Mousse Acabado Mate FPS 16 MEDIUM 6- BEIGE; LBEL MOUSSE MATIFFIANT Matte Finish Mousse Foundation SPF 16 Base Textura Mousse Acabado Mate FPS 16 MEDIUM 7 - BEIGE; LBEL MOUSSE MATIFFIANT Matte Finish Mousse Foundation SPF 16 Base Textura Mousse Acabado Mate FPS 16 MEDIUM 7- BEIGE; LBEL MOUSSE MATIFFIANT Matte Finish Mousse Foundation SPF 16 Base Textura Mousse Acabado Mate FPS 16 OBSCURE 8 - BROWN; LBEL MOUSSE MATIFFIANT Matte Finish Mousse Foundation SPF 16 Base Textura Mousse Acabado Mate FPS 16 OBSCURE 8- BROWN; LBEL MOUSSE MATIFFIANT Matte Finish Mousse Foundation SPF 16 Base Textura Mousse Acabado Mate FPS 16 OBSCURE 9 - BROWN; LBEL MOUSSE MATIFFIANT Matte Finish Mousse Foundation SPF 16 Base Textura Mousse Acabado Mate FPS 16 OBSCURE 9- BROWN; LBEL REGRESSION JOUR Protective Complex With SPF 15 Facial Day Normal to Combination Skin; LBEL RENOVANCE JOUR Daytime Face SPF 15 All Skin Types; LBEL SUPREMACIE NX JOUR Replenishing Daytime Face SPF 15 Normal To Oily Skin; LBEL SUPREMACIE NX JOUR Replenishing Treatment Daytime Face SPF 15 Normal To Dry Skin; LBEL SUPREMACIE NX JOUR Replenishing Treatment Daytime Face SPF 15 Normal To Oily Skin; LBEL divine lip gloss SPF 15 (CARAMEL MELON) - BROWN; LBEL divine lip gloss SPF 15 (DOUCE) - PINK; LBEL divine lip gloss SPF 15 (GRAPE LUMIERE) - MAGENTA; LBEL divine lip gloss SPF 15 (GROSEILLE) - BROWN; LBEL divine lip gloss SPF 15 (PECHE) - BROWN; LBEL divine lip gloss SPF 15 (SWEET FRAMBOISE) - PINK; LBEL divine lip gloss SPF 15 (VIN SENSUELLE) - RED; LBEL divine lip gloss SPF 15 (VIN) - BROWN; LBel Clarifique Dermo Radiance Mains SPF 15; LBel Couleur Luxe Rouge Amplifier XP; LBel Couleur Luxe Supreme XP; LBel EFFET PARFAIT; LBel EFFET PARFAIT Loose Extra-Fine Portable; LBel Effet Parfait Rouge Alissant; LBel Effet Parfait Rouge Volumesse; LBel Effet Parfit; LBel Paris Regression Jour; LBel Paris Renovance Jour; LBel Protege Expert; LBel Supremacie Mains; LBel Supremacie Teint; LBri Pure nNatural Oil Free Moisturizer; LIPSTICK QUEEN ENDLESS SUMMER Broad Spectrum SPF 15 Sunscreen; LOCCITANE ALMOND VELVET HANDS Youthful Hand Broad Spectrum SPF 15 Sunscreen; LOreal Paris Dermo Expertise SPF 15 Active Daily Moisture; LOreal Paris Magic Nude Bare Skin Perfecting Makeup; LOreal Paris Revitalift Antiwrinkle Plus Firming SPF 18 Sunscreen Day Moisturizer; LOreal Paris Skin Expertise Age Perfect For Mature Skin Anti-Sagging Anti-Age Spot Hydrating Moisturizer Day Cream SPF 15; LOreal Paris Skin Expertise Collagen Moisture Filler Daily Moisturizer Day Lotion SPF15; LOreal Paris True Match Lumi Healthy Luminous Makeup Broad Spectrum SPF 20; LOreal Paris Visible Lift Blur Foundation Broad Spectrum SPF 18 Sunscreen; LOreal Paris Visible Lift Instant Age Reversing Foundation SPF 17; LOreal Paris Visible Lift Line Minimizing and Tone Enhancing Makeup Broad Spectrum SPF 17; LOreal Paris Visible lift Serum Absolute Advanced Age Reversing Makeup Broad Spectrum SPF 17; LOreal Paris Youth Code Broad Spectrum SPF 15 BB; LOreal Paris true match super blendable compact makeup Broad Spectrum SPF 17; LUMENE Sensitive Touch Daily Moisture SPF 15 Sunscreen; La Creme P; La Creme Plus; La Prairie Switzerland Anti-Aging Day Cream SPF 30; La Prairie Switzerland Anti-Wrinkle SunScreen SPF 30; La Prairie Switzerland Cellular Radiance Emulsion; La Roche Posay Laboratoire Dermatologique Rosaliac Daily Complete Tone Correcting Broad Spectrum SPF 30 Sunscreen CC; La Roche-Posay Laboratoire Pharmacetique HydraPhase UV Eyes Hydrating Protective Cream SPF 29; Lab Series Frequent Flyer Lotion SPF 15; Lab Series Skincare for Men Bb Tinted Moisturizer Broad Spectrum SPF 35; Lab Series Skincare for Men Daily Moisture Defense Broad Spectrum SPF 15; Lab Series Skincare for Men Daily Moisture Defense Lotion SPF 15; Lab Series Super Lift Off! Aha/bha Face Lotion SPF 15; Labello Active SPF 15 - Ont Top; Laboratoire Remede Translucent Uv Coat Tint 0; Laboratoire Remede Translucent Uv Coat Tint 1; Laboratoire Remede Translucent Uv Coat Tint 2; Laboratoire Remede Translucent Uv Coat Tint 3; Lagom Cellus Sun Gel; Lait Auto-bronzant SPF 6; Lait Auto-bronzant SPF 6  -  Emulsion; Lait Bronz.prot.securite-bioth.fps12 Enfants; Lait Bronzant Haute Protection SPF 20; Lait Bronzant Hydro-nutritif SPF 8; Lait Bronzant Mer Et Tropiques; Lait Caresse Solaire No. 41; Lait De Chevre SPF 15; Lait De Soin Bronzant Mer Et Tropiques; Lait De Soin Solaire Mer Et Tropiques Corps; Lait Haute Protection; Lait Hydratant Apres Soleil No.45; Lait Protecteur SPF 15 Peaux Cl/sens./enf.; Lait Solaire Bronzage Progressif SPF 10; Lait Solaire Bronzage Rapide SPF 6; Lait Solaire Haute Protection; Lait Solaire Protecteur Au Beurre De Karite; Lait Solaire Protection Modérée Corps; Lait Solaire Protection élevée Corps; Lancome - Bienfait Total SPF 15; Lancome Paris Absolue Bx Makeup Broad Spectrum SPF 18 Sunscreen Absolute Replenishing Radiant Makeup; Lancome Paris Absolue Makeup Broad Spectrum SPF 20 Sunscreen Absolute Replenishing Makeup for Dry and Very Dry Skin; Lancome Paris BB Bienfait Teinte Beauty Balm Broad Spectrum SPF 30 Sunscreen; Lancome Paris Bienfait MultiVital Eye SPF 28 Sunscreen 24 Hour Moisturization Antioxidant and Vitamin Enriched; Lancome Paris Imanance Broad Spectrum SPF 15 Sunscreen; Lancome Paris La Base Pro Redness Corrector Broad Spectrum SPF 10 Sunscreen Neutralizing Makeup Base; Lancome Paris Nude Miracle Broad Spectrum SPF 15 Sunscreen; Lancome Paris Photogenic Lumessence Light Mastering and Line Smoothing Makeup Normal to Dry Skin Broad Spectrum SPF 15 Sunscreen; Lancome Paris Renergie Lift Makeup Broad Spectrum SPF 20 Sunscreen; Lancome Paris Skin Feels Good Broad Spectrum SPF 23 Sunscreen Hydrating Skin Tint Healthy Glow; Lancome Paris Star Bronzer Long Lasting Bronzer SPF 15; Lancome Paris Teint Idole Fresh Wear Enduring Shine Free Makeup Broad Spectrum SPF 15 Sunscreen; Lancome Paris Teint Idole Ultra 24H Makeup Broad Spectrum SPF 15 Sunscreen; Lancome Paris Teint Idole Ultra Cushion Broad Spectrum SPF 50 Sunscreen; Lancome Paris Teint Idole Ultra Makeup Broad Spectrum SPF 21; Lancome Paris Teint Miracle Lit From Within Makeup Broad Spectrum SPF 15 Sunscreen; Lancome Paris Teint Visionnaire Skin Correcting Makeup Duo Foundation Broad Spectrum SPF 20; Lancome Teint Idole Fresh Wear Enduring Shine Free Makeup SPF 15 Sunscreen; Lancome Teint Idole Ultra 24H Makeup SPF 15 Sunscreen; Lancome Teint Miracle Lit from within Makeup SPF 15 Sunscreen; Lancome Tropiques Minerale Mineral Smoothing Pressed Bronzer SPF 15 Sunscreen; Lancome-imanance SPF 8; Lancome-maqui-libre SPF 15 - Crm 4%; Lancome-stk Protecteur Levres SPF 15; Lancôme - Bienfait Total Uv Teinte SPF 15; Lancôme - Flash Bronzer SPF 15; Laneige BB Cushion Dark; Laneige BB Cushion Medium Dark; Laneige Bb Cushion; Laneige Bb Cushion Fair; Laneige Bb Cushion Light Medium; Laneige Cushion Concealer; Laneige Cushion Concealer Fair; Laneige Cushion Concealer Light; Laneige Cushion Concealer Light Medium; Laneige Cushion Concealer Medium; Laneige Lip Treatment SPF 17 No.1; Laneige Lip Treatment SPF 17 No.2; Laneige Lip Treatment SPF 17 No.3; Laneige Mystic Veil Foundation No. 21; Laneige Mystic Veil Foundation No. 23; Laneige Satin Finish Twin Pact No. 13; Laneige Satin Finish Twin Pact No. 21; Laneige Satin Finish Twin Pact No. 23; Laneige Satin Finish Twin Pact No. 25; Laneige Satin Finish Twin Pact No. 31; Laneige Skin Veil Base No. 20 SPF 26 Pa Plus; Laneige Skin Veil Base No. 40 SPF 26 Pa Plus; Laneige Skin Veil Base SPF 26 Pa Plus; Laneige Skin Veil NO.21 SPF 26 PAplus; Laneige Skin Veil NO.23 SPF 26 PAplus; Laneige Skin Veil NO.31 SPF 26 PAplus; Laneige Skin Veil NO.33 SPF 26 PAplus; Laneige Sliding Pact EX snow crystal No.1; Laneige Snow Bb Cream; Laneige Snow Crystal No. 21 Spf22 Paplus; Laneige Snow Crystal No. 23 Spf22 Paplus; Laneige Snow Crystal No. 31 Spf22 Paplus; Laneige Snow Crystal No. 33 Spf22 Paplus; Laneige UV TOTAL BASE; Laneige Watery Cushion Concealer no. 1; Laneige Watery Cushion Concealer no. 2; Laneige Watery Cushion Concealer no. 3; Laneige sliding pact EX snow crystal No.2; Laneige sliding pact EX snow crystal No.3; Laneige sliding pact EX snow crystal No.4; Laneige sliding pact EX snow crystal No.5; Lanocreme Hydrating Day Spf15; Large Ecran Uv; Laser Block 100 sunblock; Laser Sunscreen 100; Lasting Results Moisturizer; Laszlo Blue Cream/crème SPF 30; Laura Geller Beauty Tuscan Sun Spackle SPF 30 Protective Under Make-UP Primer Deep; Laura Geller Beauty Tuscan Sun Spackle SPF 30 Protective Under Make-UP Primer Fair; Laura Geller Beauty Tuscan Sun Spackle SPF 30 Protective Under Make-UP Primer Medium; Laura Geller Beauty Tuscan Sun Spackle SPF 30 Protective Under Make-UP Primer Porcelain; Laura Geller Beauty Tuscan Sun Spackle SPF 30 Protective Under Make-UP Primer Tan; Laura Mercier Flawless Skin Daily Face Shield SPF 40; Laura Mercier Flawless Skin Mega Moisture Creme Broad Spectrum SPF 15 Sunscreen for Normal/Dry Skin; Laura Mercier Flawless Skin Moisture Creme Broad Spectrum SPF 15 Sunscreen for Normal/Combination Skin Flawless skin Mega Moisturizer SPF-15 NORMAL COMBINATION; Laura Mercier Flawless Skin Repair Day Broad Spectrum SPF 15 Sunscreen; Laura Mercier Flawless Skin Repair Oil Free Day Broad Spectrum SPF 15; Laura Mercier Flawless Skin Repair Oil Free Day Broad Spectrum SPF 15 Sunscreen; Laura Mercier Foundation Primer Protect SPF 30; Laura Mercier Tinted Moisturizer - Illuminating Broad Spectrum SPF 20 Sunscreen - Bare Radiance; Laura Mercier Tinted Moisturizer - Illuminating Broad Spectrum SPF 20 Sunscreen - Bronze Radiance; Laura Mercier Tinted Moisturizer - Illuminating Broad Spectrum SPF 20 Sunscreen - Natural Radiance; Laura Mercier Tinted Moisturizer - Illuminating Broad Spectrum SPF 20 Sunscreen - Warm Radiance; Laura Mercier Tinted Moisturizer Broad Spectrum SPF 20 Sunscreen - Almond; Laura Mercier Tinted Moisturizer Broad Spectrum SPF 20 Sunscreen - Blush; Laura Mercier Tinted Moisturizer Broad Spectrum SPF 20 Sunscreen - Cameo; Laura Mercier Tinted Moisturizer Broad Spectrum SPF 20 Sunscreen - Caramel; Laura Mercier Tinted Moisturizer Broad Spectrum SPF 20 Sunscreen - Fawn; Laura Mercier Tinted Moisturizer Broad Spectrum SPF 20 Sunscreen - Mocha; Laura Mercier Tinted Moisturizer Broad Spectrum SPF 20 Sunscreen - Natural; Laura Mercier Tinted Moisturizer Broad Spectrum SPF 20 Sunscreen - Nude; Laura Mercier Tinted Moisturizer Broad Spectrum SPF 20 Sunscreen - Ochre; Laura Mercier Tinted Moisturizer Broad Spectrum SPF 20 Sunscreen - Porcelain; Laura Mercier Tinted Moisturizer Broad Spectrum SPF 20 Sunscreen - Sand; Laura Mercier Tinted Moisturizer Broad Spectrum SPF 20 Sunscreen - Tawny; Laura Mercier Tinted Moisturizer Broad Spectrum SPF 20 Sunscreen Walnut; Laura Mercier Tinted Moisturizer SPF 20 Caramel; Laura Mercier Tinted Moisturizer SPF 20 MOCHA; Laura Mercier Tinted Moisturizer SPF 20 Nude; Laura Mercier Tinted Moisturizer SPF 20 SAND; Laura Mercier Tinted Moisturizer SPF 20 Tan; Laura mercier Moisturizer cream with SPF 15; Laura mercier Tinted Moisturizer SPF-20 Tan; Laura mercier Tinted Moisturizer SPF-20 Walnut SPF-20 Walnut; Laura mercier flawless skin repair Day Broad Spectrum SPF 15; Laura mercier flawless skin repair oil free Day Broad Spectrum SPF 15; Lbel Concentre Total Base Serum Ultra-fluid Foundation SPF 25 Claire 1 - Beige; Lbel Concentre Total Base Serum Ultra-fluid Foundation SPF 25 Claire 2 - Beige; Lbel Concentre Total Base Serum Ultra-fluid Foundation SPF 25 Claire 3 - Beige; Lbel Concentre Total Base Serum Ultra-fluid Foundation SPF 25 Claire 4 - Beige; Lbel Concentre Total Base Serum Ultra-fluid Foundation SPF 25 Medium 5 - Beige; Lbel Concentre Total Base Serum Ultra-fluid Foundation SPF 25 Medium 6 - Beige; Lbel Concentre Total Base Serum Ultra-fluid Foundation SPF 25 Medium 7 - Beige; Lbel Concentre Total Base Serum Ultra-fluid Foundation SPF 25 Obscure 8 - Beige; Lbel Concentre Total Base Serum Ultra-fluid Foundation SPF 25 Obscure 9 - Beige; Lbel Concentre Total Base Serum Ultra-fluid Foundation SPF 25 Tono Hut - Beige; Lbel Couleur Luxe Amplifier Xp Amplifying SPF 15; Lbel Couleur Luxe Amplifier Xp Amplifying SPF 15 - Ampliffier Amandier; Lbel Couleur Luxe Amplifier Xp Amplifying SPF 15 - Bourgogne Vif; Lbel Couleur Luxe Amplifier Xp Amplifying SPF 15 - Cafe Succes; Lbel Couleur Luxe Amplifier Xp Amplifying SPF 15 - Carmine; Lbel Couleur Luxe Amplifier Xp Amplifying SPF 15 - Chocolat Majestic; Lbel Couleur Luxe Amplifier Xp Amplifying SPF 15 - Corail Maximum; Lbel Couleur Luxe Amplifier Xp Amplifying SPF 15 - Dore Chocolat; Lbel Couleur Luxe Amplifier Xp Amplifying SPF 15 - Fiancee; Lbel Couleur Luxe Amplifier Xp Amplifying SPF 15 - Fucsia Desir; Lbel Couleur Luxe Amplifier Xp Amplifying SPF 15 - Fucsia Splendide; Lbel Couleur Luxe Amplifier Xp Amplifying SPF 15 - Malbec; Lbel Couleur Luxe Amplifier Xp Amplifying SPF 15 - Marron Illimite; Lbel Couleur Luxe Amplifier Xp Amplifying SPF 15 - Mer De Roses; Lbel Couleur Luxe Amplifier Xp Amplifying SPF 15 - Miel Echanter; Lbel Couleur Luxe Amplifier Xp Amplifying SPF 15 - Natural Persistant; Lbel Couleur Luxe Amplifier Xp Amplifying SPF 15 - Noblesse; Lbel Couleur Luxe Amplifier Xp Amplifying SPF 15 - Orange Delirant; Lbel Couleur Luxe Amplifier Xp Amplifying SPF 15 - Romance; Lbel Couleur Luxe Amplifier Xp Amplifying SPF 15 - Rose Champagne; Lbel Couleur Luxe Amplifier Xp Amplifying SPF 15 - Rose Damour; Lbel Couleur Luxe Amplifier Xp Amplifying SPF 15 - Rose Delicat; Lbel Couleur Luxe Amplifier Xp Amplifying SPF 15 - Rose Femme; Lbel Couleur Luxe Amplifier Xp Amplifying SPF 15 - Rose Formidable; Lbel Couleur Luxe Amplifier Xp Amplifying SPF 15 - Rose Fucsia; Lbel Couleur Luxe Amplifier Xp Amplifying SPF 15 - Rose Tentation; Lbel Couleur Luxe Amplifier Xp Amplifying SPF 15 - Rouge Grandoise; Lbel Couleur Luxe Amplifier Xp Amplifying SPF 15 - Rouge Intense; Lbel Couleur Luxe Amplifier Xp Amplifying SPF 15 - Rouge Prodigeux; Lbel Couleur Luxe Amplifier Xp Amplifying SPF 15 - Rouge Provocation; Lbel Couleur Luxe Amplifier Xp Amplifying SPF 15 - Rouge Rubi; Lbel Couleur Luxe Amplifier Xp Amplifying SPF 15 - Saumon Essentiel; Lbel Couleur Luxe Amplifier Xp Amplifying SPF 15 - Sobriete; Lbel Couleur Luxe Amplifier Xp Amplifying SPF 15 - Violet Pourpre; Lbel Couleur Luxe Rouge Irresistible; Lbel Couleur Luxe Supreme Laque; Lbel Defense 365 Daily Protective Facial SPF 50; Lbel Defense 365 Daily Protective SPF 50; Lbel Divine Lip Gloss SPF 15; Lbel Divine Polvos Compactos Doble Uso Fps 15 Edicion De Lujo Dorado/double Use Compact SPF 15 Gold Deluxe Edition Claire 1-2-3; Lbel Divine Polvos Compactos Doble Uso Fps 15 Edicion De Lujo Dorado/double Use Compact SPF 15 Gold Deluxe Edition Claire 4; Lbel Divine Polvos Compactos Doble Uso Fps 15 Edicion De Lujo Dorado/double Use Compact SPF 15 Gold Deluxe Edition Medium 5; Lbel Divine Polvos Compactos Doble Uso Fps 15 Edicion De Lujo Dorado/double Use Compact SPF 15 Gold Deluxe Edition Medium 6; Lbel Divine Polvos Compactos Doble Uso Fps 15 Edicion De Lujo Dorado/double Use Compact SPF 15 Gold Deluxe Edition Medium 7; Lbel Divine Polvos Compactos Doble Uso Fps 15 Edicion De Lujo Dorado/double Use Compact SPF 15 Gold Deluxe Edition Obscure 8-9; Lbel Divine Polvos Compactos Doble Uso Fps 15 Edicion De Lujo Plateado/double Use Compact SPF 15 Silver Deluxe Edition Claire 1-2-3; Lbel Divine Polvos Compactos Doble Uso Fps 15 Edicion De Lujo Plateado/double Use Compact SPF 15 Silver Deluxe Edition Claire 4; Lbel Divine Polvos Compactos Doble Uso Fps 15 Edicion De Lujo Plateado/double Use Compact SPF 15 Silver Deluxe Edition Medium 5; Lbel Divine Polvos Compactos Doble Uso Fps 15 Edicion De Lujo Plateado/double Use Compact SPF 15 Silver Deluxe Edition Medium 6; Lbel Divine Polvos Compactos Doble Uso Fps 15 Edicion De Lujo Plateado/double Use Compact SPF 15 Silver Deluxe Edition Medium 7; Lbel Divine Polvos Compactos Doble Uso Fps 15 Edicion De Lujo Plateado/double Use Compact SPF 15 Silver Deluxe Edition Obscure 8-9; Lbel Effet Parfait; Lbel Effet Parfait Mineral; Lbel Effet Parfait Mineral Natural Skin Effect Mousse Foundation SPF 16 (claire 1) - Beige; Lbel Effet Parfait Mineral Natural Skin Effect Mousse Foundation SPF 16 (claire 2) - Beige; Lbel Effet Parfait Mineral Natural Skin Effect Mousse Foundation SPF 16 (claire 3) - Beige; Lbel Effet Parfait Mineral Natural Skin Effect Mousse Foundation SPF 16 (claire 4) - Beige; Lbel Effet Parfait Mineral Natural Skin Effect Mousse Foundation SPF 16 (medium 5) - Brown; Lbel Effet Parfait Mineral Natural Skin Effect Mousse Foundation SPF 16 (medium 6) - Brown; Lbel Effet Parfait Mineral Natural Skin Effect Mousse Foundation SPF 16 (medium 7) - Brown; Lbel Effet Parfait Mineral Natural Skin Effect Mousse Foundation SPF 16 (obscure 8) - Brown; Lbel Effet Parfait Mineral Natural Skin Effect Mousse Foundation SPF 16 (obscure 9) - Brown; Lbel Effet Parfait Signs Of Age Appearance Minimizer Foundation SPF 20; Lbel Filling Effect Foundation SPF 10 (claire 1) - Beige; Lbel Filling Effect Foundation SPF 10 (claire 2) - Beige; Lbel Filling Effect Foundation SPF 10 (claire 3) - Beige; Lbel Filling Effect Foundation SPF 10 (claire 4) - Beige; Lbel Filling Effect Foundation SPF 10 (medium 5) - Brown; Lbel Filling Effect Foundation SPF 10 (medium 6) - Brown; Lbel Filling Effect Foundation SPF 10 (medium 7) - Brown; Lbel Filling Effect Foundation SPF 10 (obscure 8) - Brown; Lbel Filling Effect Foundation SPF 10 (obscure 9) - Brown; Lbel Hydra Calme; Lbel Hydra Calme SPF 15; Lbel Hydratess Long-lasting Intense Moisturizing SPF 20 - Almond; Lbel Hydratess Long-lasting Intense Moisturizing SPF 20 - Amour; Lbel Hydratess Long-lasting Intense Moisturizing SPF 20 - Chocolat; Lbel Hydratess Long-lasting Intense Moisturizing SPF 20 - Lily Beige; Lbel Hydratess Long-lasting Intense Moisturizing SPF 20 - Malve; Lbel Hydratess Long-lasting Intense Moisturizing SPF 20 - Mandarine; Lbel Hydratess Long-lasting Intense Moisturizing SPF 20 - Marron Glace; Lbel Hydratess Long-lasting Intense Moisturizing SPF 20 - Moka; Lbel Hydratess Long-lasting Intense Moisturizing SPF 20 - Nude; Lbel Hydratess Long-lasting Intense Moisturizing SPF 20 - Romance; Lbel Hydratess Long-lasting Intense Moisturizing SPF 20 - Rose Clasique; Lbel Hydratess Long-lasting Intense Moisturizing SPF 20 - Rose Natural; Lbel Hydratess Long-lasting Intense Moisturizing SPF 20 - Rouge Intense; Lbel Hydratess Long-lasting Intense Moisturizing SPF 20 - Tulip; Lbel Hydratess Long-lasting Intense Moisturizing SPF 20 - Vin; Lbel Lip Moisturizer SPF 18; Lbel Natural Finish Moisturizing Foundation SPF 25 (claire 1) - Beige; Lbel Natural Finish Moisturizing Foundation SPF 25 (claire 2) - Beige; Lbel Natural Finish Moisturizing Foundation SPF 25 (claire 3) - Beige; Lbel Natural Finish Moisturizing Foundation SPF 25 (claire 4) - Beige; Lbel Natural Finish Moisturizing Foundation SPF 25 (dore 6) - Beige; Lbel Natural Finish Moisturizing Foundation SPF 25 (medium 5) - Brown; Lbel Natural Finish Moisturizing Foundation SPF 25 (medium 6) - Brown; Lbel Natural Finish Moisturizing Foundation SPF 25 (medium 6a) - Brown; Lbel Natural Finish Moisturizing Foundation SPF 25 (medium 6b) - Brown; Lbel Natural Finish Moisturizing Foundation SPF 25 (medium 7) - Brown; Lbel Natural Finish Moisturizing Foundation SPF 25 (obscure 10) - Brown; Lbel Natural Finish Moisturizing Foundation SPF 25 (obscure 8) - Brown; Lbel Natural Finish Moisturizing Foundation SPF 25 (obscure 8a) - Brown; Lbel Natural Finish Moisturizing Foundation SPF 25 (obscure 8b) - Brown; Lbel Natural Finish Moisturizing Foundation SPF 25 (obscure 8c) - Brown; Lbel Natural Finish Moisturizing Foundation SPF 25 (obscure 9) - Brown; Lbel Protege Expert; Lbel Regression Jour Protective Complex With SPF 15 Facial Day Normal To Dry Skin; Lbel Replenishing Foundation SPF 14 (claire 1) - Beige; Lbel Replenishing Foundation SPF 14 (claire 2) - Beige; Lbel Replenishing Foundation SPF 14 (claire 3) - Beige; Lbel Replenishing Foundation SPF 14 (claire 4) - Beige; Lbel Replenishing Foundation SPF 14 (medium 5) - Brown; Lbel Replenishing Foundation SPF 14 (medium 6) - Brown; Lbel Replenishing Foundation SPF 14 (medium 7) - Brown; Lbel Replenishing Foundation SPF 14 (obscure 8) - Brown; Lbel Replenishing Foundation SPF 14 (obscure 9) - Brown; Lbel Ultra Balm Moisturizing Protective Balm for Lips SPF 20 Cerise Brise - Pink; Lbel Ultra Balm Moisturizing Protective Balm for Lips SPF 20 Coral Petale - Pink; Lbel Ultra Balm Moisturizing Protective Balm for Lips SPF 20 Nude Caramel - Beige; Lbel Ultra Balm Moisturizing Protective Balm for Lips SPF 20 Nude Translucide - Beige; Lbel Ultra Balm Moisturizing Protective Balm for Lips SPF 20 Rose Cotton - Pink; Lbel Ultra Balm Moisturizing Protective Balm for Lips SPF 20 Rose Paradise - Pink; Lbel Uv Defense 365; Le Blanc Light Creator Brightening Makeup Base Broad Spectrum SPF 40 Sunscreen, 10 Rosee; Le Blanc Light Creator Brightening Makeup Base Broad Spectrum SPF 40 Sunscreen, 20 Mimosa; Le Blanc Light Revealing Brightening Makeup Base Broad Spectrum SPF 30 Sunscreen, 10 Rosee; Le Fond De Teint; Le Lou Collagen Day SPF 30; Le Rouge Absolu; Le Teint Ultra Tenue Ultrawear Flawless Compact Foundation Broad Spectrum SPF 15 Suncreeen 10 Beige; Le Teint Ultra Tenue Ultrawear Flawless Compact Foundation Broad Spectrum SPF 15 Suncreeen 12 Beige Rose; Le Teint Ultra Tenue Ultrawear Flawless Compact Foundation Broad Spectrum SPF 15 Suncreeen 20 Beige; Le Teint Ultra Tenue Ultrawear Flawless Compact Foundation Broad Spectrum SPF 15 Suncreeen 21 Beige; Le Teint Ultra Tenue Ultrawear Flawless Compact Foundation Broad Spectrum SPF 15 Suncreeen 22 Beige Rose; Le Teint Ultra Tenue Ultrawear Flawless Compact Foundation Broad Spectrum SPF 15 Suncreeen 30 Beige; Le Teint Ultra Tenue Ultrawear Flawless Compact Foundation Broad Spectrum SPF 15 Suncreeen 32 Beige Rose; Le Teint Ultra Tenue Ultrawear Flawless Compact Foundation Broad Spectrum SPF 15 Suncreeen 40 Beige; Le Teint Ultra Tenue Ultrawear Flawless Compact Foundation Broad Spectrum SPF 15 Suncreeen 42 Beige Rose; Le Teint Ultra Tenue Ultrawear Flawless Compact Foundation Broad Spectrum SPF 15 Suncreeen 50 Beige; Le Teint Ultra Tenue Ultrawear Flawless Compact Foundation Broad Spectrum SPF 15 Suncreeen 60 Beige; Le Teint Ultra Tenue Ultrawear Flawless Compact Foundation Broad Spectrum SPF 15 Suncreeen 70 Beige; Le Teint Ultra Tenue Ultrawear Flawless Compact Foundation Broad Spectrum SPF 15 Suncreeen 91 Caramel; Le Velvet Powder Finish Makeup Refill - Crm; Leader Dark Tanning SPF 4; Leader Moisture SPF 15 Lip Balm; Lecithin-aloe Moisture Cream; Lee Hands Free Lip-balm SPF 30; Leg Magic; Les Beiges All-IN-one Healthy Glow Fluid, Broad Spectrum SPF 15 Sunscreen, No 10; Les Beiges All-IN-one Healthy Glow Fluid, Broad Spectrum SPF 15 Sunscreen, No 20; Les Beiges All-IN-one Healthy Glow Fluid, Broad Spectrum SPF 15 Sunscreen, No 30; Les Beiges All-IN-one Healthy Glow Fluid, Broad Spectrum SPF 15 Sunscreen, No 40; Les Beiges All-IN-one Healthy Glow Fluid, Broad Spectrum SPF 15 Sunscreen, No 50; Les Beiges All-IN-one Healthy Glow Fluid, Broad Spectrum SPF 15 Sunscreen, No 60; Les Beiges Gel Touch Healthy Glow Tint Broad Spectrum SPF 15 Sunscreen No 10; Les Beiges Gel Touch Healthy Glow Tint Broad Spectrum SPF 15 Sunscreen No 12 Rose; Les Beiges Gel Touch Healthy Glow Tint Broad Spectrum SPF 15 Sunscreen No 20; Les Beiges Gel Touch Healthy Glow Tint Broad Spectrum SPF 15 Sunscreen No 21; Les Beiges Gel Touch Healthy Glow Tint Broad Spectrum SPF 15 Sunscreen No 22 Rose; Les Beiges Gel Touch Healthy Glow Tint Broad Spectrum SPF 15 Sunscreen No 30; Les Beiges Gel Touch Healthy Glow Tint Broad Spectrum SPF 15 Sunscreen No 40; Les Beiges Gel Touch Healthy Glow Tint Broad Spectrum SPF 15 Sunscreen No 50; Les Beiges Gel Touch Healthy Glow Tint Broad Spectrum SPF 15 Sunscreen No 60; Les Beiges Gel Touch Healthy Glow Tint Broad Spectrum SPF 15 Sunscreen No 91 Caramel; Les Beiges Healthy Glow Foundation Broad Spectrum SPF 25 Sunscreen No 10; Les Beiges Healthy Glow Foundation Broad Spectrum SPF 25 Sunscreen No 20; Les Beiges Healthy Glow Foundation Broad Spectrum SPF 25 Sunscreen No 21; Les Beiges Healthy Glow Foundation Broad Spectrum SPF 25 Sunscreen No 30; Les Beiges Healthy Glow Foundation Broad Spectrum SPF 25 Sunscreen No 40; Les Beiges Healthy Glow Foundation Broad Spectrum SPF 25 Sunscreen No 50; Les Beiges Healthy Glow Foundation Broad Spectrum SPF 25 Sunscreen No 60; Les Beiges Healthy Glow Foundation Broad Spectrum SPF 25 Sunscreen No12 Rose; Les Beiges Healthy Glow Foundation Broad Spectrum SPF 25 Sunscreen No121 Caramel; Les Beiges Healthy Glow Foundation Broad Spectrum SPF 25 Sunscreen No22 Rose; Les Beiges Healthy Glow Foundation Broad Spectrum SPF 25 Sunscreen No32 Rose; Les Beiges Healthy Glow Foundation Broad Spectrum SPF 25 Sunscreen No42 Rose; Les Beiges Healthy Glow Foundation Broad Spectrum SPF 25 Sunscreen No70; Les Beiges Healthy Glow Foundation Broad Spectrum SPF 25 Sunscreen No91 Caramel; Les Beiges Healthy Glow Multi-colour, Broad Spectrum SPF 15 Sunscreen, Mariniere No 01; Les Beiges Healthy Glow Multi-colour, Broad Spectrum SPF 15 Sunscreen, Mariniere No 02; Les Beiges Healthy Glow Multi-colour, Broad Spectrum SPF 15 Sunscreen, No 01; Les Beiges Healthy Glow Multi-colour, Broad Spectrum SPF 15 Sunscreen, No 02; Les Beiges Healthy Glow Sheer Colour, Broad Spectrum SPF 15 Sunscreen, No 10; Les Beiges Healthy Glow Sheer Colour, Broad Spectrum SPF 15 Sunscreen, No 20; Les Beiges Healthy Glow Sheer Colour, Broad Spectrum SPF 15 Sunscreen, No 30; Les Beiges Healthy Glow Sheer Colour, Broad Spectrum SPF 15 Sunscreen, No 40; Les Beiges Healthy Glow Sheer Colour, Broad Spectrum SPF 15 Sunscreen, No 50; Les Beiges Healthy Glow Sheer Colour, Broad Spectrum SPF 15 Sunscreen, No 60; Les Beiges Healthy Glow Sheer Colour, Broad Spectrum SPF 15 Sunscreen, No 70; Life Brand Baby Sunblock 30 SPF; Life Brand Kids & Babies Sunblock SPF 45; Life Brand Kids Sunblock 30 SPF; Life Brand Kids Sunscreen Spray; Life Brand SPF 15 Sport Sunblock; Life Brand SPF 15 Sunblock; Life Brand SPF 30 Sport Sunblock; Life Brand SPF 30 Sunblock; Life Brand Sport Sunblock 15 SPF; Life Brand Sport Sunblock 30 SPF; Life Brand Sport Sunscreen Continuous Spray; Life Brand Sunblock 15 SPF; Life Brand Sunblock 30 SPF; Life Brand Sunblock 30 SPF - Lot Top; Life Brand Sunlotion Lotionsolaire 4 SPF/fps Protection; Life Brand Sunscreen Continuous Spray; Life Brand Sunscreen Continuous Spray SPF/fps 15; Life Brand Sunscreen Towelettes; Life Brand Sunscreenoil Huile Ecran Solaire 4 SPF/fps Protection; Life Brand Sunthera3 Gradual Sunless Colour Moisturizer SPF/fps 15; Life Skinplicity Day Facial Moisturizer With SPF 15; Life for Men Facial Moisturizer; LifeCell bb cream Hydrating Anti-Oxidant Beauty Balm Broad Spectrum SPF 30 light; LifeCell bb cream Hydrating Anti-Oxidant Beauty Balm Broad Spectrum SPF 30 medium; Lifecell BROAD SPECTRUM SPF 30 BB Cream; Lifeguard Sunscreen; Lift Anti-wrinkle Firming Day Cream SPF 16; Lift Lumiere; Lift Lumiere Firming and Smoothing Fluid Makeup SPF 15; Lift Lumiere Firming and Smoothing Sunscreen Fluid Makeup Broad Spectrum SPF 15, 14 Ivoire; Lift Lumiere Firming and Smoothing Sunscreen Fluid Makeup Broad Spectrum SPF 15, 20 Clair; Lift Lumiere Firming and Smoothing Sunscreen Fluid Makeup Broad Spectrum SPF 15, 30 Cendre; Lift Lumiere Firming and Smoothing Sunscreen Fluid Makeup Broad Spectrum SPF 15, 40 Beige; Lift Lumiere Firming and Smoothing Sunscreen Fluid Makeup Broad Spectrum SPF 15, 41 Soft Bisque; Lift Lumiere Firming and Smoothing Sunscreen Fluid Makeup Broad Spectrum SPF 15, 47 Natural Beige; Lift Lumiere Firming and Smoothing Sunscreen Fluid Makeup Broad Spectrum SPF 15, 50 Naturel; Lift Lumiere Firming and Smoothing Sunscreen Fluid Makeup Broad Spectrum SPF 15, 66 Tawny Beige; Lift SPF 15; Lift Therapy Force Lift Day 20 SPF; Lift-me day cream with Anti-Ageing and Regenerative Silicium - UV Filters; Light Care Aqua Sun; Light Day Sunscreen Broad Spectrum SPF 37; Light Protection SPF 12 - Lot; Light Skin Defense Concealer Broad Spectrum SPF 15 Jafra; Light and Delicate Sunscreen Spf15; Light and Delicate Sunscreen Spf30; Lightful C SPF 30 With Radiance Booster Broad Spectrum SPF 30; Lightning McQueen Sun Smacker SPF 24 Revved Up Raspberry; Lightweight Protection SPF 45; Likewise Facial Moisturizer - Sun Protectant SPF 50 Normal to Dry Skin; Likewise Facial Moisturizer - Sun Protectant SPF 50 Normal to Oily Skin; Likewise Hand Moisturizer - Sun Protectant SPF 50; Limitless Long Wear Lip Gloss SPF 15; Line Defiance Makeup SPF 8; Linea Jose Ignacio Sunscreen Broad Spectrum SPF30; Lingerie De Peau - Invisible Skin-fusion Foundation With Sunscreen Broad Spectrum SPF 20 24 Dore Moyen; Lingerie De Peau - Invisible Skin-fusion Foundation With Sunscreen Broad Spectrum SPF 20, 23 Dore Naturel; Lingerie De Peau Aqua Nude Water-infused Perfecting Fluid Intense Hydration Long-wear Foundation With Sunscreen Broad Spectrum SPF 20 00n Porcelain; Lingerie De Peau Aqua Nude Water-infused Perfecting Fluid Intense Hydration Long-wear Foundation With Sunscreen Broad Spectrum SPF 20 01n Very Light; Lingerie De Peau Aqua Nude Water-infused Perfecting Fluid Intense Hydration Long-wear Foundation With Sunscreen Broad Spectrum SPF 20 02c Light Cool; Lingerie De Peau Aqua Nude Water-infused Perfecting Fluid Intense Hydration Long-wear Foundation With Sunscreen Broad Spectrum SPF 20 02n Light; Lingerie De Peau Aqua Nude Water-infused Perfecting Fluid Intense Hydration Long-wear Foundation With Sunscreen Broad Spectrum SPF 20 03n Natural; Lingerie De Peau Aqua Nude Water-infused Perfecting Fluid Intense Hydration Long-wear Foundation With Sunscreen Broad Spectrum SPF 20 03w Natural Warm; Lingerie De Peau Aqua Nude Water-infused Perfecting Fluid Intense Hydration Long-wear Foundation With Sunscreen Broad Spectrum SPF 20 04n Medium; Lingerie De Peau Aqua Nude Water-infused Perfecting Fluid Intense Hydration Long-wear Foundation With Sunscreen Broad Spectrum SPF 20 05w Deep Warm; Lingerie De Peau Aqua Nude Water-infused Perfecting Fluid Intense Hydration Long-wear Foundation With Sunscreen Broad Spectrum SPF 20 06w Very Deep Warm; Lingerie De Peau Bb Invisible Skin-fusion Multi-perfecting Makeup With Sunscreen Broad Spectrum SPF 30 Bb 2 Light; Lingerie De Peau Bb Invisible Skin-fusion Multi-perfecting Makeup With Sunscreen Broad Spectrum SPF 30 Bb 3 Natural; Lingerie De Peau Bb Invisible Skin-fusion Multi-perfecting Makeup With Sunscreen Broad Spectrum SPF 30 Bb 4 Medium; Lingerie De Peau Bb Invisible Skin-fusion Multi-perfecting Makeup With Sunscreen Broad Spectrum SPF 30 Light; Lingerie De Peau Bb Invisible Skin-fusion Multi-perfecting Makeup With Sunscreen Broad Spectrum SPF 30 Medium; Lingerie De Peau Invisible Skin-fusion Foundation With Sunscreen Broad Spectrum SPF 20 01 Beige Pale; Lingerie De Peau Invisible Skin-fusion Foundation With Sunscreen Broad Spectrum SPF 20 02 Beige Clair; Lingerie De Peau Invisible Skin-fusion Foundation With Sunscreen Broad Spectrum SPF 20 03 Beige Naturel; Lingerie De Peau Invisible Skin-fusion Foundation With Sunscreen Broad Spectrum SPF 20 04 Beige Moyen; Lingerie De Peau Invisible Skin-fusion Foundation With Sunscreen Broad Spectrum SPF 20 05 Beige Fonce; Lingerie De Peau Invisible Skin-fusion Foundation With Sunscreen Broad Spectrum SPF 20 12 Rose Clair; Lingerie De Peau Invisible Skin-fusion Foundation With Sunscreen Broad Spectrum SPF 20 13 Rose Naturel; Lingerie De Peau Invisible Skin-fusion Foundation With Sunscreen Broad Spectrum SPF 20 31 Ambre Pale; Lingerie De Peau Natural Perfection Foundation Skin-fusion Texture With Sunscreen Broad Spectrum SPF 20 00n Porcelaine Porcelain; Lingerie De Peau Natural Perfection Foundation Skin-fusion Texture With Sunscreen Broad Spectrum SPF 20 02c Clair Rose Light Cool; Lingerie De Peau Natural Perfection Foundation Skin-fusion Texture With Sunscreen Broad Spectrum SPF 20 02n Clair Light; Lingerie De Peau Natural Perfection Foundation Skin-fusion Texture With Sunscreen Broad Spectrum SPF 20 02w Clair Dore Light Warm; Lingerie De Peau Natural Perfection Foundation Skin-fusion Texture With Sunscreen Broad Spectrum SPF 20 03c Naturel Rose Natural Cool; Lingerie De Peau Natural Perfection Foundation Skin-fusion Texture With Sunscreen Broad Spectrum SPF 20 03n Naturel Natural; Lingerie De Peau Natural Perfection Foundation Skin-fusion Texture With Sunscreen Broad Spectrum SPF 20 03w Naturel Dore Natural Warm; Lingerie De Peau Natural Perfection Foundation Skin-fusion Texture With Sunscreen Broad Spectrum SPF 20 04c Moyen Rose Medium Cool; Lingerie De Peau Natural Perfection Foundation Skin-fusion Texture With Sunscreen Broad Spectrum SPF 20 04n Moyen Medium; Lingerie De Peau Natural Perfection Foundation Skin-fusion Texture With Sunscreen Broad Spectrum SPF 20 04w Moyen Dore Medium Warm; Lingerie De Peau Natural Perfection Foundation Skin-fusion Texture With Sunscreen Broad Spectrum SPF 20 05c Fonce Rose Deep Cool; Lingerie De Peau Natural Perfection Foundation Skin-fusion Texture With Sunscreen Broad Spectrum SPF 20 05n Fonce Deep; Lingerie De Peau Natural Perfection Foundation Skin-fusion Texture With Sunscreen Broad Spectrum SPF 20 06w Tres Fonce Dore Very Deep Warm; Lip Balm; Lip Balm Apple Flavored; Lip Balm Asian Pear Flavored; Lip Balm Bacon Flavored; Lip Balm Banana Flavored; Lip Balm Baume Pour Les Lèvres SPF 30; Lip Balm Beer Flavored; Lip Balm Berry Flavor; Lip Balm Berry Flavored; Lip Balm Birthday Cake Flavored; Lip Balm Blue Raspberry Flavored; Lip Balm Blueberry Flavored; Lip Balm Bourbon Flavored; Lip Balm Bubble Gum; Lip Balm Bubble Gum Flavored; Lip Balm Cafe Latte; Lip Balm Cafe Latte Flavored; Lip Balm Camp Fire Smores; Lip Balm Campfire Smores Flavored; Lip Balm Caramel Apple Flavored; Lip Balm Carmel Apple Flavored; Lip Balm Cherry Cola Flavored; Lip Balm Cherry Flavored; Lip Balm Choc Strawberry; Lip Balm ChocPeppermint Flavored; Lip Balm Chocolate Flavored; Lip Balm Chocolate Peppermint Flavored; Lip Balm Chocolate Strawberry Flavored; Lip Balm Cinnamon Flavored; Lip Balm Citrus Flavored; Lip Balm Coconut Flavored; Lip Balm Coffee Flavored; Lip Balm Cola Flavored; Lip Balm Cotton Candy Flavored; Lip Balm Dreamsicle Flavored; Lip Balm Fps 15 SPF; Lip Balm Grape Flavored; Lip Balm Green Apple Flavored; Lip Balm Green Tea Flavored; Lip Balm Lemon Lime Flavor; Lip Balm Lemon Lime Flavored; Lip Balm Lemonade Flavored; Lip Balm Lime Flavored; Lip Balm Mango Flavored; Lip Balm Margaita Flavored; Lip Balm Margarita Flavored; Lip Balm Mint Cvs; Lip Balm Mint Flavored; Lip Balm Orange Crush Flavored; Lip Balm Peach Flavored; Lip Balm Peppermint Flavored; Lip Balm Pina Colada Flavored; Lip Balm Pinapple Flavored; Lip Balm Pineapple Flavored; Lip Balm Pink Grapefruit Flavored; Lip Balm Pomegranate Flavored; Lip Balm Pomegranite Flavored; Lip Balm Popcorn Flavored; Lip Balm Raspberry Flavored; Lip Balm Root Beer Flavored; Lip Balm SPF; Lip Balm SPF 15; Lip Balm SPF 15 Hue; Lip Balm SPF 20; Lip Balm SPF 30; Lip Balm SPF 4; Lip Balm SPF15; Lip Balm SPF15 Sunscreen SPF30 Combo; Lip Balm Spearmint Flavored; Lip Balm Spf30 Cvs; Lip Balm Strawberry Flavored; Lip Balm Tangerine Flavored; Lip Balm Tropical Punch Flavored; Lip Balm Unflavored; Lip Balm Vanilla Coffee Flavored; Lip Balm Vanilla Flavored; Lip Balm Vanilla Mint Flavored; Lip Balm Vanilla SPF-15; Lip Balm Watermelon Flavored; Lip Balm Wintergreen Flavored; Lip Balm With SPF 15; Lip Block 15 SPF; Lip Blush SPF 15; Lip Care Balm; Lip Care Plus SPF 15; Lip Care SPF 15 With Vitamin E; Lip Care SPF 20; Lip Clear Lysine Plus Coldstick; Lip Conditioner SPF 15; Lip Conditioner SPF 15 Merle Norman; Lip Conditioner SPF 15 Plus Lavender; Lip Enhancer Gloss Sunscreen Broad Spectrum Spf15; Lip Fx; Lip Ice Natural Sunscreen SPF 15; Lip Infusion; Lip Love Ultimate Lip Rescue; Lip Massage; Lip Naturals Lip Balm; Lip Plumping Treatment; Lip Protection Stick; Lip Protector SPF 15 Sunscreen; Lip Protector SPF 20; Lip Protector Sunscreen SPF15; Lip Rejuvenating Treatment SPF 20; Lip Relief French Vanilla; Lip Saver Spf15 - Stk; Lip Smacker SPF 24 Cool Strawberry Orange; Lip Smacker SPF 24 Kiwi Berry Crush; Lip Smacker SPF 24 Lemon Lime Rush; Lip Smacker SPF 24 Melon Extreme; Lip Smacker SPF 24 Power Punch; Lip Smacker SPF 24 Strawberry Scoop; Lip Smacker SPF 24 Vanilla Ice; Lip Smacker SPF 24 Watermelon Wave; Lip Smacker SPF Cherry Berry Ball; Lip Smacker Sport SPF Lip Balm; Lip Treatment Duo Lip Scrub and Lip Balm Sunscreen SPF 15; Lip Treatment SPF 15; Lip Vibrance; Lip and Cheek Treat Broad Spectrum SPF 40 Supergoop; Lip-tech Lip Balm; LipLux Original SPF 30 Broad Spectrum; Liplights SPF 15; Lipshield Lipbalm SPF 21; Lipshield SPF 21 Lipbalm-stk Top; Liquid Lipstick SPF 15; Liquid Makeup SPF 16; Liquid Makeup SPF 16 Merle Norman; Liquid Spray Sunscreen; Lise Watier Cc Creme Fps 25 SPF; Lite-guard; Loccitane Immortelle Divine Spf20; Loccitane Immortelle Precious Spf20; Loccitane Pivoine Sublime With Peony Broad Spectrum SPF 25; Loccitane Pivoine Sublime With Peony Broad Spectrum SPF 25 Sunscreen Rose Amber; Loccitane Pivoine Sublime With Peony Broad Spectrum SPF 25 Sunscreen Rose Nude; Loccitane Pivoine Sublime With Peony Broad Spectrum SPF 25 Sunscreen Rose Plum; London Drug Sport 30spf; London Drug Sunblock Lotion 15spf; London Drug Sunblock Lotion 30spf; London Drugs Kids 30 SPF Sunblock Lotion; London Drugs' Baby Sunblock SPF 30; London Drugs' Dark Tanning Lotion SPF 4; London Drugs' Sport Sunblock SPF 15; London Drugs' Sport Sunblock SPF 30; London Drugs' Sunblock Lotion SPF 15; London Drugs' Sunblock Lotion SPF 30; London Drugs' Sunscreen Lotion SPF 8; Long Last Glosswear SPF 15; Long Last Make UP 02 (Neo Heliopan); Long Last Makeup 00; Long Last Makeup 01; Long Last Makeup 03; Long Last Makeup 05; Long Lasting Finish with Comfort Serum SPF 20 Classic Beige; Long Lasting Finish with Comfort Serum SPF 20 Classic Ivory; Long Lasting Finish with Comfort Serum SPF 20 Ivory; Long Lasting Finish with Comfort Serum SPF 20 Light Ivory; Long Lasting Finish with Comfort Serum SPF 20 Sand; Long Lasting Finish with Comfort Serum SPF 20 Soft Beige; Long Lasting Finish with Comfort Serum SPF 20 True Beige; Long Wear Liquid Foundation SPF 15; Long-wear Even Finish Foundation Broad Spectrum SPF 15; Lorac Foundation Deep SPF20; Lorac Foundation Fair SPF20; Lorac Foundation Golden Light SPF20; Lorac Foundation Golden Tan SPF20; Lorac Foundation Light Beige SPF20; Lorac Foundation Light SPF20; Lorac Foundation Medium Beige SPF20; Lorac Foundation Medium SPF20; Lorac Foundation Medium Tan SPF20; Lorac Foundation Tan SPF20; Lotion Hydratante Anti-brillance Fps 15; Lotion SPF 15; Lotion SPF 30; Lotion SPF 45; Lotion Solaire Fps 15; Lotion Solaire Fps 25; Lotion Solaire Fps 8; Lotion Solaire Protection Totale Fps 30; Lotion Sport; Lotion écran Solaire 30; Lotion écran Solaire Universel Fps 15 Avec Dioxyde De Titane; Lotion écran Solaire Universel Fps 30 Avec Dioxyde De Titane; Love You Baby Sun Cushion; Lovely ME EX BB PACT SPF20; Lovely Me EX 32900042; Lovely Me:ex Bb Cream SPF 20/pa++; Lovely Me:ex Bb Pact SPF 20; Lubriderm Lotion Daily Uv Defense SPF 15; Lubriderm Skin Renewal Facial Lotion; Lubriderm Skin Renewal Hand Cream; Lubriderm Uv SPF 15; Lucidity Light-diffusing Makeup SPF 8; Lumene Bright Now Visible Repair Day SPF 15 Sunscreen Broad Spectrum; Lumene Bright Now Vitamin C BB SPF 20 Sunscreen Broad Spectrum 01 Light; Lumene Bright Now Vitamin C BB SPF 20 Sunscreen Broad Spectrum 02 Medium; Lumene Bright Now Vitamin C Day SPF 15 Sunscreen Broad Spectrum; Lumene Bright Now Vitamin C Moisturizer; Lumene Cc Color Correcting Sunscreen Broad Spectrum SPF 20 Light; Lumene Cc Color Correcting Sunscreen Broad Spectrum SPF 20 Medium; Lumene Complete Rewind Recovery Day SPF 15 Sunscreen Broad Spectrum; Lumene Excellent Future Age-Defying and Repairing Day SPF 15 Sunscreen; Lumene Premium Beauty Rejuvenating Day; Lumene Time Freeze Anti-Age CC Color Correcting SPF 20 Sunscreen Broad Spectrum LIGHT; Lumene Time Freeze Anti-Age CC Color Correcting SPF 20 Sunscreen Broad Spectrum MEDIUM; Lumene Time Freeze Firming Day SPF 15; Lumene Time Freeze Firming Day SPF 15 Sunscreen Broad Spectrum; Lumene Time Freeze Targeted Dark Spot Corrector Sunscreen SPF 30; Lumene Valo Day Moisturizer SPF 15 Sunscreen Broad Spectrum SPF 15; Lumene Vitamin C BB Illuminating Anti-Age BB Sunscreen Broad Spectrum SPF 20 Light; Lumene Vitamin C BB Illuminating Anti-Age BB Sunscreen Broad Spectrum SPF 20 Medium; Lumene Vitamin C Pure Radiance Day; Luminous AuraCapsule CC; Luminous Bright Aura CC; Luminous Goddess Aura Bb; Luminous Goddess Aura Live Melting Foundation; Luminous Intensive Decollote Treatment SPF 20; Luminous Intensive Décolleté Cream Treatment SPF 20; Luminous Intensive Hand Cream Treatment SPF 25; Luminous Intensive Hand Treatment SPF 25; Luminous Live Aura CC; Luminous Moisturizing Foundation SPF 15; Luminous Moisturizing Foundation SPF-15; Luminous Pure Aura CC; Luminous Shield SPF 50; Lustra-AF; Luxe Liquid Foundation SPF 15; Luxiva Changing Skin Treatment SPF 15; Luxiva Flawless Effect Liquid Foundation SPF 15; Luxiva Preventage Daily Defense Creme Spf15; Luxiva Preventage Firming Defense CRème SPF 15; Luxiva Preventage Firming Defense CRème for Dry Skin SPF 15; Luxiva Preventage Firming Eye Cream SPF-15; Luxiva Preventage Hand Treatment for Dry Skin SPF 15; Luxiva Preventage Hand Treatment for Normal Skin SPF 15; Luxiva Sheer Defense SPF 15; Luxiva Ultra Lipcolor SPF-15; Lycoris Rubus brightening BB SPF40 PA Plus Plus; LypSyl Honeyberry; LypSyl Vanilla Plum Intense Protection; Lypsyl Lip Balm Extreme Moisture; Lypsyl Moisture Burst SPF 15; Lypsyl Moisture Burst SPF-30; M-A-C Day SPF 15 Light Moisture; M.A.C. Matchmaster SPF 15 Foundation; M.A.C. Prep + Prime Cc Colour Correct SPF 30; M.A.C. Prep+prime Bb Beauty Balm SPF 35; M.A.C. Pro Longwear SPF 20 Compact Foundation; M.A.C. Studio Moisture Fix SPF 15; M.A.C. Studio Waterweight SPF 30 Foundation; M.A.c Lightful C Marine-bright Formula SPF 30 Moisturizer; M.A.c Mineralize Foundation  SPF 15; M.A.c Prep+prime Bb Beauty Balm Compact SPF 30; M.A.c Prep+prime Face Protect SPF 50; M.A.c Studio Fix Fluid SPF 15; M.A.c Studio Moisture Tint SPF 15; M.A.c Suntints SPF 20 Liquid Lip Balm; M.A.c Tendertone Lip Balm SPF 12; MAC LIGHTFUL Cplus CORAL GRASS TINTED WITH RADIANCE BOOSTER BROAD SPECTRUM SPF030; MATCH PERFECTION Foundation SPF 18 Shade 502 Noisette; MATCH PERFECTION Foundation SPF 20 - Shade 100 Ivory; MATCH PERFECTION Foundation SPF 20 - Shade 101 Classic Ivory; MATCH PERFECTION Foundation SPF 20 - Shade 102 Light Nude; MATCH PERFECTION Foundation SPF 20 - Shade 103 True Ivory; MATCH PERFECTION Foundation SPF 20 - Shade 200 Beige; MATCH PERFECTION Foundation SPF 20 - Shade 201 Classic Beige; MATCH PERFECTION Foundation SPF 20 - Shade 202 Nude; MATCH PERFECTION Foundation SPF 20 - Shade 203 True Beige; MATCH PERFECTION Foundation SPF 20 - Shade 300 Sand; MATCH PERFECTION Foundation SPF 20 - Shade 301 Warm Honey; MATCH PERFECTION Foundation SPF 20 - Shade 302 Golden Honey; MATCH PERFECTION Foundation SPF 20 - Shade 303 True Nude; MATCH PERFECTION Foundation SPF 20 - Shade 400 Natural Beige; MATCH PERFECTION Foundation SPF 20 - Shade 402 Bronze; MISA Geum Sul Vitalizing BB Cake 21; MISA Geum Sul Vitalizing BB Cake 23; MISA Geum Sul Vitalizing Day SPF15; MISSHA All Around Safe Block Fresh Sun SPF50; MISSHA All Around Safe Block Sun Milk For Men SPF50 40ML; MISSHA All Around Safe Block Sun Milk For Men SPF50 70ML; MISSHA M Essential Care Lip Treatment SPF15; MISSHA M Magic Cushion Cover SPF50 NO31; MISSHA M Magic Cushion Moisture No23; MISSHA M Magic Cushion No 27; MISSHA M Magic Cushion No.21; MISSHA M Magic Cushion No.23; MISSHA M Magic Cushion SPF50 NO31; MISSHA M Perfect Cover BB No 13; MISSHA M Perfect Cover BB No 21; MISSHA M Perfect Cover BB No 23; MISSHA M Perfect Cover BB No 27; MISSHA M Perfect Cover BB No 31; MISSHA M Perfect Cover BB SPF42 No23; MISSHA M Perfect Cover BB SPF42 No29; MISSHA Pore-fection BB Cream SPF30 No.1 Light Beige; MISSHA Pore-fection BB Cream SPF30 No.2 Natural Beige; MISSHA Signature Essence Cushion No 21; MISSHA Signature Essence Cushion No 23; MISSHA Signature Volume Brightening Concealer SPF30 No21; MISSHA Signature Volume Brightening Concealer SPF30 No23; MISSHA Skin Fit Stick Foundation SPF50 No.21; MISSHA Skin Fit Stick Foundation SPF50 No.23; MISSHA The Original Tension Pact Intense Moisture SPF37 No13; MISSHA The Original Tension Pact Intense Moisture SPF37 No21; MISSHA The Original Tension Pact Intense Moisture SPF37 No23; MISSHA The Original Tension Pact Perfect Cover SPF37 No 13; MISSHA The Original Tension Pact Perfect Cover SPF37 No 21; MISSHA The Original Tension Pact Perfect Cover SPF37 No 23; MISSHA The Style Fitting Wear Foundation SPF30 No21; MISSHA The Style Fitting Wear Foundation SPF30 No23; MKMen Moisturizer Sunscreen Broad Spectrum SPF 25; Mac Hyper Real SPF 15 Foundation; Mac Lightful C + Coral Grass Tinted Cream SPF 30 With Radiance Booster; Mac Lightful C Marine Bright Formula Bs SPF 30 Moisturizer; Mac Lightful C Tinted Cream SPF 30 With Radiance Booster; Mac Lip Conditioner SPF 15; Mac Lip Conditioner Stick SPF 15; Mac Mineralize Satinfinish SPF 15 Foundation; Mac Pro Longwear SPF 20 Compact Foundation Broad Spectrum SPF 20; Mac Select Tint SPF 15; Mac Studio Finish Concealer SPF 35; Mac Studio Moisture Fix SPF 15; Mac Studio Sculpt SPF 15 Foundation; Mac Studio Stick Foundation SPF 15; Mac Studio Waterweight SPF 30 Broad Spectrum Foundation Sunscreen; Mac Tendertone Lip Balm SPF 12; Mac Tinted Lip Conditioner SPF 15; Mac Tinted Lip Conditioner Stick SPF 15; Macroantioxidant Sun Protection; Magis Lene Brilliant Gold CC Cream XQ; Magis Lene Collagen Choc Extra Gold BB Cream; Magix Face Perfector; Magix Tinted Face Perfector Perfecteur Visage Teinte SPF/fps 15; Makeup Sun Primer; Malin and Goetz SPF 15 face moisturizer; Malin and Goetz SPF 30 Face Moisturizer; Mamonde Brightening Pact 10hr N21; Mamonde Brightening Pact 10hr N23; Mamonde Pact Blooming 21; Mamonde Pact Blooming 23; Mamonde Total Mineral Moisture BB SPF20 PA plus; Mamonde Total Moisture BB 01; Mamonde Total Moisture BB 02; Mango Bebe Lip Care Spf15 Mint Mango; Mango Bebe Lip Care Spf15 Red Mango; Mango Bebe Lip Care Spf15 White Mango; Mango Bebe Lip Essence Spf15; Mango Butter Lipstick; Mango Butter Lipstick SPF 10; Manicure By Opi - Finishing Butter; Manicure By Opi Finishing Butter; Maple Treatment Hand Cream SPF 20; Maracuja Miracle Foundation 12-Hour Foundation Broad Spectrum SPF 15 Sunscreen Beige; Maracuja Miracle Foundation 12-Hour Foundation Broad Spectrum SPF 15 Sunscreen Deep; Maracuja Miracle Foundation 12-Hour Foundation Broad Spectrum SPF 15 Sunscreen Fair; Maracuja Miracle Foundation 12-Hour Foundation Broad Spectrum SPF 15 Sunscreen Ivory; Maracuja Miracle Foundation 12-Hour Foundation Broad Spectrum SPF 15 Sunscreen Light; Maracuja Miracle Foundation 12-Hour Foundation Broad Spectrum SPF 15 Sunscreen Light-Medium; Maracuja Miracle Foundation 12-Hour Foundation Broad Spectrum SPF 15 Sunscreen Medium; Maracuja Miracle Foundation 12-Hour Foundation Broad Spectrum SPF 15 Sunscreen Medium-Tan; Maracuja Miracle Foundation 12-Hour Foundation Broad Spectrum SPF 15 Sunscreen Tan; Maracuja Miracle Foundation 12-Hour Foundation Broad Spectrum SPF 15 Sunscreen Warm Beige; Marcelle / Hydra-C 24 H + SPF 15 Fps / Moisturizing Cream / Creme Hydratante All Skin Types / Tous Types De Peaux; Marcelle / New Age Precision / Anti-wrinkle and Firming / Anti-rides Et Fermeté / Moisturizing Lotion SPF 15 / Lotion Hydratante Fps 15; Marcelle CC Cream Complete Correction Sunscreen Broad Spectrum SPF 35; Marcelle City Tinted Cream CRème Tintée Multi-protection SPF 25 Fps; Marcelle City Tinted Cream SPF 25 Octinoxate Sunscreen; Marcelle Flawless Air Serum Foundation Sérum De Teint Peau Parfaite SPF 15 Fps; Marcelle Hydra-C 24 H + SPF 15 Fps Moisturizing Cream CRème Hydratante Dry Skin Peaux Sèches; Marcelle Revival Intense Anti-aging/anti-age Intense Moisturizing Lotion SPF 15/lotion Hydratante Fps 15; Marcelle Revival+ Skin Renewal Anti-aging Day Cream SPF 15; Marcelle Sheer Tint Fluid Moisturizer SPF 15 / Fluide Hydratant Teinté Translucide Fps 15; Marcelle Sun Block Cream SPF 15; Marcelle Sun Block Cream SPF 20; Marcelle Sun Block Cream SPF 8; Marcelle Sun Block Lotion SPF 15; Marcelle Sun Block Lotion SPF 20; Marcelle Sun Block Lotion SPF 8; Marcelle True Radiance SPF 15 Fps; Marcelle/ Oil Free Multi-Défense Lotion SPF 15 Fps/ Fluide Multi-Défense Sans Huile; Marcelle/1st Wrinkles/1ères Rides/day Cream SPF 15/créme De Jour Fps 15; Marcelle/bb/cream/crème/anti-aging/anti-âge/SPF 20 Fps; Marcelle/cc/cream/crème Complete Correction/correction Complète/SPF 35 Fps; Marcelle/dd/cream/crème/daily Defense/défense Diurne/SPF 25 Fps; Marcelle/multi-defense Cream/crème Multi-Défense/SPF 15 Fps; Marie dArgan Day Cream SPF15; Mario Badescu Aloe SPF; Mario Badescu Collagen SPF 15; Mario Badescu SPF 17; Mario Badescu SPF 30; Mario Badescu Skin Care Oil Free Moisturizer Broad Spectrum SPF 30 Sunscreen; Mark Glossworks Lip Gloss; Mark Got The Goods Multi-benefit Foundation; Mark Totally Balmed; Mark. Get A Tint Tinted Moisturizer; Mark. Get Defensive SPF 15 Eye; Mary Kay CC Cream Sunscreen Broad Spectrum SPF 15 Deep; Mary Kay CC Cream Sunscreen Broad Spectrum SPF 15 Light to Medium; Mary Kay CC Cream Sunscreen Broad Spectrum SPF 15 Medium to Deep; Mary Kay CC Cream Sunscreen Broad Spectrum SPF 15 Very Deep; Mary Kay CC Cream Sunscreen Broad Spectrum SPF 15 Very Light; Mary Kay Cc Cream; Mary Kay Day Solution SPF 15; Mary Kay Lip Protector Sunscreen SPF 15; Mary Kay SPF 30 Sunscreen; Mary Kay Suncare Sunscreen SPF 30; Mary Kay TimeWise Day Solution Sunscreen SPF 25; Mary Kay Timewise Day Solution With Sunscreen SPF 15; Mary Kay Timewise Sunscreen SPF 15; Mary Kay Tinted Lip Balm Sunscreen SPF 15; Mary Kay Tinted Lip Balm Sunscreen SPF 15 Apricot; Mary Kay Tinted Lip Balm Sunscreen SPF 15 Berry; Mary Kay Tinted Lip Balm Sunscreen SPF 15 Blush; Mary Kay Tinted Lip Balm Sunscreen SPF 15 Cherry; Mary Kay Tinted Lip Balm Sunscreen SPF 15 Fig; Mary Kay Tinted Lip Balm Sunscreen SPF 15 Mango; Mary Kay Tinted Lip Balm Sunscreen SPF 15 Natural; Mary Kay Tinted Lip Balm Sunscreen SPF 15 Peach; Mary Kay Tinted Lip Balm Sunscreen SPF 15 Peony; Mary Kay Tinted Lip Balm Sunscreen SPF 15 Poppy; Mary Kay Tinted Lip Balm Sunscreen SPF 15 Rose; Mary Kay Tinted Moisturizer Sunscreen SPF 20 Beige 1; Mary Kay Tinted Moisturizer Sunscreen SPF 20 Beige 1 (Drug Facts); Mary Kay Tinted Moisturizer Sunscreen SPF 20 Beige 2; Mary Kay Tinted Moisturizer Sunscreen SPF 20 Beige 2 (Drug Facts); Mary Kay Tinted Moisturizer Sunscreen SPF 20 Bronze 1; Mary Kay Tinted Moisturizer Sunscreen SPF 20 Bronze 1 (Drug Facts); Mary Kay Tinted Moisturizer Sunscreen SPF 20 Bronze 2; Mary Kay Tinted Moisturizer Sunscreen SPF 20 Bronze 2 (Drug Facts); Mary Kay Tinted Moisturizer Sunscreen SPF 20 Ivory 1; Mary Kay Tinted Moisturizer Sunscreen SPF 20 Ivory 1 (Drug Facts); Mary Kay Tinted Moisturizer Sunscreen SPF 20 Ivory 2; Mary Kay Tinted Moisturizer Sunscreen SPF 20 Ivory 2 (Drug Facts); Mary Kay Tinted Moisturizer With Sunscreen SPF 20; Match Perfection SPF 18 Classic Beige 250; Match Perfection SPF 18 Classic Ivory 101; Match Perfection SPF 18 Ivory 120; Match Perfection SPF 18 Light Nude 102; Match Perfection SPF 18 Nude 202; Match Perfection SPF 18 Sand 330; Match Perfection SPF 18 Soft Beige 240; Match Perfection SPF 18 True Ivory 130; Matchmaster Foundation SPF 15; Matchmaster SPF 15 Foundation Broad Spectrum; Matrix Skin Benefits Advanced Skin Creme SPF 8; Matrix Skin Benefits Advanced Skin Lotion SPF 8; Matte Moisturizer SPF 15; Matte and Clear Matifying Protector SPF 25; Mattifying Extreme Wear Foundation SPF 15; Mattifying Extreme Wear Foundation SPF-15; Max Block SPF 30 Baby Sunscreen; Max Block SPF 30 Kids Sunscreen; Max Block SPF 30 Sunscreen; Max Block SPF 30 Sunscreen Sport; Max Sheer All Day Moisture Defense; Max Sheer All Day Moisture Defense Lotion; Maxi Look Lips Gloss Stick SPF 15; May New York Super Clear Pure Sun 17g; May New York Super Clear Pure Sun 22g; May New York Super Clear Sun 16g; May New York Super Clear Sun 21g; May Newyork Super Sun; May Newyork Super Sun 10g; Maybelline New York Baby Lips Moisturizing Lip Balm SPF 20; Maybelline New York Baby Lips Peppermint Moisturizing Lip Balm SPF 20 Sunscreen; Maybelline New York Baby Lips Quenched Moisturizing Lip Balm SPF 20 Sunscreen; Maybelline New York Dream Nude Airfoam Air Infused Foundation SPF 16; Maybelline New York Dream Nude Airfoam Air Infused Makeup Sunscreen Broad Spectrum SPF 16; Maybelline New York Dream Wonder Fluid Touch Foundation Broad Spectrum SPF 20 Sunscreen; Maybelline New York Fit Me Foundation; Maybelline New York Fit Me Foundation Dewy Plus Smooth SPF 18 Sunscreen; Maybelline New York Instant Age Rewind Eraser Treatment Makeup Broad Spectrum SPF 18 Sunscreen; Maybelline New York Instant Age Rewind Eraser Treatment Makeup SPF 18; Maybelline New York Instant Age Rewind Radiant Firming Makeup Broad Spectrum SPF 18 Sunscreen; Maybelline New York Master Prime By Face Studio Primer Broad Spectrum SPF 30 Sunscreen; Maybelline New York Pure Stay Powder Foundation Broad Spectrum SPF 15 Sunscreen; Mcblooms Moisturizing Sunscreen Spf15; Md Formulations Sun Protector 20; Md Formulations Total Protector 15; Md Formulations Total Protector 30; Meaningful Beauty BB Broad Spectrum SPF 15 (Light, Medium, Dark); Meaningful Beauty Cindy Crawford Antioxidant SPF 20 UVA/UVB; Meaningful Beauty Cindy Crawford Maintenance 1 Daily Moisture SPF 8; Meaningful Beauty Cindy Crawford Maintenance 1plus Daily Moisture SPF 20 UVA/UVB; Meaningful Beauty Cindy Crawford Skin Brightening Decollete and Neck Treatment SPF 15; Meaningful Beauty Cindy Crawford Skin Brightening Décolleté and Neck Treatment SPF 15; Medi UV Block Suncream SPF50 PA; MediChoice Lip Balm SPF 15; MediSpa SunSpray sunblock; MediSpa Sunblock sunblock; MediSpa Sunspray; Medicated Fade Creme with Sunscreen; Medicated Flavored Lips SPF 30; Medium Deep Warm Perfecting Makeup Broad Spectrum SPF 25 Merle Norman; Medium Expert Finish Makeup Broad Spectrum SPF 25 Merle Norman; Medium Skin Defense Concealer Broad Spectrum SPF 15 Jafra; Mega Lip Color SPF 15; Meijer AM Facial Moisturizing Broad Spectrum SPF 30 Sunscreen; Meijer Oil Free SPF 15; Meijer SPF 4 Tanning Oil; Meijer Sunscreen SPF 15; Meijer Suscreen SPF 8; Melafadin Day Protection; Men Dynamics Double Duty Face Protector SPF 15; Mens Maca Root Energising Face Protector SPF15; Mentholatum Medicated Lip Balm Cherry; Mentholatum Medicated Lip Balm Original; Mentholatum Natural Ice Cherry; Mentholatum Natural Ice Extreme SPF-30 Lipbalm; Mentholatum Natural Ice Lipbalm; Mentholatum Natural Ice Original; Mentholatum Natural Ice Sport SPF 30; Mentholatum Softlips French Vanilla Lip Protectant SPF 20; Mentholatum Softlips Sparkle Mint Lip Protectant SPF 10; Mentholatum Softlips Tints Sun Kissed Copper; Merino Collagen SPF 30; Merino Lip SPF 30; Merle Norman Alabaster Beige Perfecting Makeup SPF 25; Merle Norman Preventage Hand Treatment SPF 15; Mesoestetic Moisturizing Sun Protection Broad Spectrum for Normal and Dry Skins; Mesoestetic Sun Protection SPF 25; Mesoestetic Sun Protection SPF 30; Mesoestetic Sun Protection SPF 50; Meteorites Baby Glow Broad Spectrum SPF 25 2 Light; Meteorites Baby Glow Broad Spectrum SPF 25 3 Medium; Meteorites Baby Glow Broad Spectrum SPF 25 4 Golden; Methode D'adaptation Creme No 1; Methode D'adaptation Creme No 2; Mickey Sun Smacker SPF 24 Classic Sherbet; Mickey Sun Smacker SPF 24 Classic Strawberry; Mickey Sun Smacker SPF 24 Classic Vanilla; Mickey Sun Smacker SPF 24 Home Run Star Fruit; Micro Retouching Blur Compact SPF 50; Micro Retouching N203 Natural Beige Spf50; Microfit Cushion 101; Microfit Cushion 201; Microfit Cushion 301; Milani Prime Protect SPF 30 Face Primer; Mineral Concealer; Mineral Concealer SPF-15; Mineral Foundation; Mineral Foundation SPF-15; Mineral Protective Am SPF 15; Mineralium Hdra Source Moisturizing Protector SPF 25; Mineralize Foundation SPF 15; Mineralize Moisture SPF 15 Foundation; Mineralize Satin Foundation SPF 15 Foundation; Mineralized Loose Powder SPF 15; Mini Berry Lip Balm Blueberry; Mini Berry Lip Balm Cherry; Mint Condition Lip Shield SPF 30 Supergoop; Mint Fusion Lip Balm SPF 30 Supergoop; Mint Glaze FX; Mint Sunscreen Lip Moisturizer; Minus-Sol Facial Sun Protection Sunscreen Broad Spectrum SPF 30 Plus Ivory; Minus-Sol Facial Sun Protection Sunscreen Broad Spectrum SPF 30 Plus White; Miracle Matt BB Cream; Miracle Skin Transformer Face Broad Spectrum SPF 20 Sunscreen; Missha All Around Safe Block Essence Sun Broad Spectrum Spf45; Missha All Around Safe Block Essence Sun Milk 40ml; Missha All Around Safe Block Essence Sun Milk 70ml; Missha All Around Safe Block Essence Sun Spf45 Pa Plus Plus Plus; Missha All Around Safe Block Soft Finish Sun Milk 40ml; Missha All Around Safe Block Soft Finish Sun Milk 70ml; Missha All Around Safe Block Soft Finish Sun Milk Broad Spectrum SPF 50 Plus; Missha All Around Safe Block Waterproof Sun Milk Spf50 40ml; Missha All Around Safe Block Waterproof Sun Milk Spf50 70ml; Missha Glam Silky Body Balm SPF 27; Missha M Magic Cushion Cover No21; Missha M Magic Cushion Cover SPF 50 No 23; Missha M Magic Cushion Moisture No21; Missha M Magic Cushion No 21; Missha M Magic Cushion No 23; Missha M Prism Bright On Auto No.2 Spf35 Pa Plus Plus Plus; Missha M Radiance Two Way Pact Spf27 No21; Missha M Radiance Two Way Pact Spf27 No23; Missha Signature Aura Tension Deep Moisture No 21; Missha Signature Aura Tension Deep Moisture No 23; Missha Signature Complexion Coordinating Bb Beige Broad Spectrum Spf43; Missha Signature Complexion Coordinating Bb Honey Beige; Missha Signature Complexion Coordinating Bb White Broad Spectrum Spf43; Missha Signature Dramatic Whitening Pact No.2 Spf50 Plus Pa Plus Plus Plus; Missha Signature Essence Cushion Intensive Cover Spf50 No 21; Missha Signature Essence Cushion Intensive Cover Spf50 No 23; Missha Signature Wrinkle Fill Up Bb No 21; Missha Signature Wrinkle Fill Up Bb No 23; Missha Signature Wrinkle Filler Bb Spf37 Pa Plus Plus No.23; Missha Time Revolution White Cure Blanc Sun Protector Nw Broad Spectrum Spf50 Plus; Missha Time Revolution White Cure Uv Sun Protector Spf50 Plus Pa Plus Plus Plus; Mizon Uv Sun Protector; Mkmen Moisturizer Sunscreen SPF 25; Moderate Protection Emulsion; Moderate Protection Sun SPF 15; Moist Essential Pact 21 Light Beige; Moist Essential Pact 23 Natural Beige; Moist Moisture Bb; Moist Moisture Cc; Moist Pact No.21 Bright Beige; Moist Pact No.23 Natural Beige; Moisture Compound SPF 30; Moisture Cream SPF 30; Moisture Extreme SPF 15; Moisture Extreme SPF 15 Sunscreen; Moisture Lotion SPF-15; Moisture Melt; Moisture Renew Auburn Breeze (740); Moisture Renew Berry Rose (500); Moisture Renew Burgundy Lustre (540); Moisture Renew Burgundy Shine (840); Moisture Renew Cherrylicious (820); Moisture Renew Coral Shimmer (120); Moisture Renew Crystal Mauve (420); Moisture Renew Dreamy (140); Moisture Renew Dusty Rose (645); Moisture Renew Iced Coffee (700); Moisture Renew Latino (240); Moisture Renew Mauve Pink (460); Moisture Renew Nude Delight (642); Moisture Renew Pink Chic (220); Moisture Renew Pink Star (235); Moisture Renew Precious Brown (680); Moisture Renew Red Alert (900); Moisture Renew Rose Blush (300); Moisture Renew Rose Shimmer (370); Moisture Renew Rouge (850); Moisture Renew Summer Angel (640); Moisture Renew Vintage Pink (380); Moisture Renew Violet Pop (520); Moisture Rescue Lightweight SPF 15-lotion; Moisture Restore Day Oil Free Protective Lotion SPF 15 (combination To Oily Skin); Moisture Restore Day Oil Free Protective Lotion SPF 15 (normal To Dry Skin); Moisture Restore Day Protective Lotion SPF 15 Normal To Dry Skin; Moisture Restore Day Protective Mattefying Broad Spectrum SPF15 Combination to Oily; Moisture Restore Day Protective Mattefying Lotion SPF 15 Combination To Oily Skin; Moisture Rich Foundation SPF 15; Moisture SPF 15 Sheer Tint Formula Crm; Moisture Surge Cc Broad Spectrum SPF 30 Hydrating Colour Corrector; Moisture Surge Tinted Moisturizer SPF 15; Moisture Therapy Daily Skin Defense Body; Moisture Therapy Intensive Body Lotion With SPF 15; Moisture Therapy Intensive Healing & Repair Dry Lip Ointment SPF 15; Moisture Therapy Intensive Healing & Repair Extra Dry Skin Body Lotion; Moisture Therapy Intensive Healing and Repair Body; Moisture Therapy Intensive Healing and Repair Lip; Moisture Therapy Lip Balm SPF 25; Moisturising Sun Protection Spf50; Moisturising Sunscreen SPF 30; Moisturizer Long lasting, oil free; Moisturizer Maple Day Cream SPF 15; Moisturizer SPF 15; Moisturizing Antioxidant Day CRème SPF 20; Moisturizing Day Cream SPF 15; Moisturizing Day Creme With SPF 15; Moisturizing Day Lotion SPF 15; Moisturizing Lip Balm; Moisturizing Lotion SPF 15; Moisturizing Makeup SPF 15; Moisturizing Protector SPF 30; Moisturizing Sunblock; Moisturizing Sunscreen Cream; Moisturizing Sunscreen Lotion; Moisturizing Sunscreen Spf15; Moisturizing Tint SPF 30; Moisuture Replenishing Broad Spectrum SPf 15 Jafra; Monoi: Huile Seche SPF 2; Moonflash Cushion; Morinda TruAge Therapy Element Shield SPF 20; Morning Glow Bb Cream SPF 15; Moroccan oil Sun Oil; Mousse Exquise Auto-bronzante 15 SPF; Moustisol Lot; Movate Skin Lightening; Multi Active Hand Protector SPF 15; Multi Effect Day Cream SPF 25; Multi Perfection Special Effector Spf15; Multi Protection UV Bouncer; Multi Recharge SPF 15; Multi-Active Day Early Wrinkle Correcting SPF 15; Multi-age Correction; Multiceutical Complex Oil Free Day Moisturizer Sunscreen SPF 15; Multiceutical Compound Oil Free Day Creme Sunscreen SPF 20; Multivitamin Bodyblock SPF 20; Muskol Insect Repellent With Sunblock SPF 15; Mv Body Defense SPF 20; My Favorite Sport Balm Mon Baume Sport Préféré SPF/fps 15; My Sunny Powde Ry Finish Sun Milk; My Sunny Watery Sun Essence; Myeonghan Miindo Hwansaenggo Gold Essence Bb SPF 35 30100317; Myung Han Miindo Make Up Base; NARS Pure Radiant Tinted Moisturizer Alaska; NARS Pure Radiant Tinted Moisturizer Annapurna; NARS Pure Radiant Tinted Moisturizer Cuba; NARS Pure Radiant Tinted Moisturizer Finland; NARS Pure Radiant Tinted Moisturizer Malaga; NARS Pure Radiant Tinted Moisturizer Martinique; NARS Pure Radiant Tinted Moisturizer Polynesia; NARS Pure Radiant Tinted Moisturizer Seychelles; NARS Pure Radiant Tinted Moisturizer St. Moritz; NATURAL CARE CONCHA DE NACAR and ROSA MOSQUETA CREMA FACIAL FPS 15 PARA UNA APARIENCIA MAS CLARA FM; NBCeutical; NEOGEN DERMALOGY Day-Light Protection Sun Screen SPF50; NEOGEN DERMALOGY Multi Play BC Stick SPF45 21 Light; NIVEA A Kiss of Smoothness Hydrating Lip Care; NIVEA Men Replenishing Lip Balm; NIVEA for Men Replenishing Lip Balm; NO-AD Dark Tanning SPF 4; NO-AD SPF 8 Tanning; NO-AD SPF4 Dark Tanning Oil; NOURISHING hydrator; NUANCE Salma Hayek Renewed Radiance Moisturizing Day Cream Broad Spectrum SPF 30 Sunscreen; Naked Glow; Naked One and Done Cream Light; Naked Skin One and Done Dark; Naked Skin One and Done Deep; Naked Skin One and Done, Medium; Naked Skin One and Done, Medium Dark; Naked Skin One and Done, Medium Light; Napoleon Perdis Auto Pilot BBB Beauty Boosting Balm Broad Spectrum SPF 30 MEDIUM-DARK; Nars All Day Luminous Foundation Barcelona; Nars All Day Luminous Foundation Cadiz; Nars All Day Luminous Foundation Deauville; Nars All Day Luminous Foundation Fiji; Nars All Day Luminous Foundation Laponie; Nars All Day Luminous Foundation Macao; Nars All Day Luminous Foundation Mont Blanc; Nars All Day Luminous Foundation Punjab; Nars All Day Luminous Foundation Santa Fe; Nars All Day Luminous Foundation Siberia; Nars All Day Luminous Foundation Stromboli; Nars All Day Luminous Foundation Sweden; Nars All Day Luminous Foundation Syracuse; Nars All Day Luminous Foundation Tahoe; Nars All Day Luminous Foundation Vallauris; Nars Benares; Nars Cadiz; Nars Deauville; Nars Foundation Barcelona; Nars Foundation Benares; Nars Foundation Cadiz; Nars Foundation Deauville; Nars Foundation Fiji; Nars Foundation Mont Blanc; Nars Foundation New Orleans; Nars Foundation Punjab; Nars Foundation Santa Fe; Nars Foundation Siberia; Nars Foundation Stromboli; Nars Foundation Syracuse; Nars Foundation Tahoe; Nars Laguna Body Tint; Nars New Orleans; Nars Pro-prime Light Optimizing Primer; Nars Pro-prime Light Optimizing Primer SPF 15; Nars Pro-prime Multi-protect Primer; Nars Punjab; Nars Pure Radiant Tinted Moisturizer Alaska; Nars Pure Radiant Tinted Moisturizer Annapurna; Nars Pure Radiant Tinted Moisturizer Cuba; Nars Pure Radiant Tinted Moisturizer Cuzco; Nars Pure Radiant Tinted Moisturizer Finland; Nars Pure Radiant Tinted Moisturizer Groenland; Nars Pure Radiant Tinted Moisturizer Malaga; Nars Pure Radiant Tinted Moisturizer Martinique; Nars Pure Radiant Tinted Moisturizer Polynesia; Nars Pure Radiant Tinted Moisturizer ST. Moritz; Nars Pure Radiant Tinted Moisturizer Seychelles; Nars Pure Radiant Tinted Moisturizer Terre-neuve; Nars Pure Sheer SPF Lip Treatment Angelique; Nars Pure Sheer SPF Lip Treatment Bianca; Nars Siberia; Nars Stromboli; Nars Syracuse; Nars Tahoe; Nars Velvet Matte Skin Tint Alaska; Nars Velvet Matte Skin Tint Annapurna; Nars Velvet Matte Skin Tint Cuba; Nars Velvet Matte Skin Tint Cuzco; Nars Velvet Matte Skin Tint Finland; Nars Velvet Matte Skin Tint Groenland; Nars Velvet Matte Skin Tint Malaga; Nars Velvet Matte Skin Tint Martinique; Nars Velvet Matte Skin Tint Polynesia; Nars Velvet Matte Skin Tint ST. Moritz; Nars Velvet Matte Skin Tint Seychelles; Nars Velvet Matte Skin Tint Terre-neuve; Naruko Taiwan Magnolia Firming Smooth Finish Cream Makeup; Native Tan Baby Care Sun Protection Lotion SPF 25; Natria Brightening SPF 15; Natria Nourishing Daily Defense; Natria-balancing Daily Defense Lotion Spf15; Natria-nourishing Daily Defense Lotion SPF 15; Natural Advantage SPF 15 All Day Moisture with AHAs; Natural Defense Color Enhancing Moisturizer; Natural FX; Natural Finish Long Lasting Foundation SPF 15; Natural Fx Water Based Foundation SPF 15; Natural Sun AQ Body and Family Mild Sun Milk; Natural Sun AQ Total Anti-aging Essence Sun; Natural Sun Eco Aqua Sunscreen Gel 40 SPF; Natural Sun Eco Light Sun Cream SPF 50+ Pa+++; Natural Sun Eco Mild Milk Spf40; Natural Sun Eco Photogenic Sun Blur Spf50+ Pa+++; Natural Sun Eco Power Long-lasting Sunscreen Cream Spf50; Natural Sun Eco Sebum Control Moisture Sun Spf40; Natural Sun Eco Sun Cream SPF 50+ Pa+++; Natural Sun Eco Super Perfect SPF 50; Natural Tan Always Color Stay-On Makeup SPF 10; Natural Tan Always color stay-on Makeup Broad Spectrum SPF 15 Jafra; Natural Tan Moisturizing Makeup Broad Spectrum SPF 15 Jafra; Natural Tan Oil Controlling Makeup Broad Spectrum SPF 15 Jafra; Naturally Beaming; Nature Origin Cc Blur; Nature Origin Cc Brightening; Nature Origin Cc Tinted; Nature Origin Collagen Bb 01 Light Beige; Nature Origin Collagen Bb 02 Natural Beige; Nature Origin Collagen Bb Cre Am 10 Dark Beige; Nature Origin Collagen Bb Original; Nature Origin Cover Two Way Pact 01 Light Beige; Nature Origin Cover Two Way Pact 02 Natural Beige; Nature Origin Cushion Cc Natural No.21; Nature Origin Cushion Cc Natural No.23; Nature's Gate Aquablock Lotion Spf30; Nature's Gate SPF 15 Lotion; Nature's Gate SPF 30 Lotion; Nature's Gate SPF 8 Lotion; Natures Gate Aqua SPF 50; Natures Gate Face Broad Spectrum Sunscreen SPF 25; Natures Gate Face SPF 25; Natures Gate Kids SPF 50; Natures Gate Sport SPF 50; Natures Gate kids SPF 50; Near Skin Dustless Defense Sunblock; Nearly Foundation; Neck + Chest Perfector; Nena Natural Oceanic Clay Skin Brightening Daily Moisturizing Cream, SPF 30; Neo Classic Homme Leports Sun Cream SPF 50+ Pa+++; Neo Classic Homme Sports 31700111; NeoStrata Daytime Protection SPF 23; NeoStrata Enlighten Skin Brightener SPF 25; NeoStrata Sheer Hydration SPF 35; NeoStrata Skin Active Matrix Support SPF 30; NeoStrata Ultra Daytime Smoothing SPF 20; Neoderma Anti-wrinkle Day Cream; Neogen Code 9 Uv Defense Longlasting Protector Spf50; Neogen Dermalogy Day Light Protection Sun Screen Spf50; Neostrata Aha Daytime Rejuvenating Cream Sensitive Skin Formual SPF 15; Neostrata Aha Light Textured Smoothing Cream SPF 15; Neostrata Aha Skin Smoothing Cream SPF 15; Neostrata Aha Smooth&moist Lotion Sens Spf15; Neostrata Aha Smoothing & Moist Lotion Spf15; Neostrata Daytime Hydra-rejuvenating Cream; Neostrata Daytime Matifying Renewal Fluid; Neostrata Daytime Moisture Infusion Cream; Neostrata Daytime Smoothing Cream Level 1; Neostrata Daytime Smoothing Cream Level 2; Neostrata Intense CRème De Jour Réparides; Neostrata Intense Daytime Total Anti Age Complex; Neostrata Moisture Infusion Daytime Replenishing Cream; Neostrata Oil Free Anti Aging Sunscreen Lotion; Neostrata Oil Free Daytime Smoothing Lotion Level 3; Neostrata Protective Lotion Broad Spectrum Uva/uvb Protection SPF 50+; Neostrata Sunshield Spray SPF 30; Neostrata Ultra-light Sun Lotion Broad Spectrum Uva/uvb Protection SPF 50+; Neova DNA Damage Control - Active Broad Spectrum SPF 43; Neova DNA Damage Control - Active SPF 45; Neova DNA Damage Control - Everyday Broad Spectrum SPF 44; Neova DNA Damage Control - Everyday SPF 43; Neova DNA Damage Control - Silc Sheer Broad Spectrum SPF 40; Neova DNA Damage Control - Silc Sheer SPF 45; Neova Smartsunscreen - Active; Neova Smartsunscreen - Everyday; Neova Smartsunscreen - Silc Sheer 2.0; Neutrogena Anti-wrinkle Cream SPF 15; Neutrogena Complete Acne Therapy Solution; Neutrogena Complete Acne Therapy System; Neutrogena Day Lotion SPF 15; Neutrogena Day Moisture SPF 15; Neutrogena Glow Sunless Tan.lot Spf8-LT Glow; Neutrogena Glow Sunless Tan.lot for Facespf8; Neutrogena Glow Sunless Tanning Lot SPF 8; Neutrogena Glow Sunless Tanning Lotion - Medium; Neutrogena Healthy Defense Daily Moisturizer SPF 30; Neutrogena Healthy Defense Daily Moisturizer Sunscreen SPF30 Light Tint; Neutrogena Healthy Skin; Neutrogena Healthy Skin Anti Wrinkle Sunscreen SPF15; Neutrogena Healthy Skin Anti-Aging Perfector Sunscreen Broad Spectrum SPF 20 Fair to Light 20; Neutrogena Healthy Skin Anti-Aging Perfector Sunscreen Broad Spectrum SPF 20 Ivory to Fair 10; Neutrogena Healthy Skin Anti-Aging Perfector Sunscreen Broad Spectrum SPF 20 Light to Neutral 30; Neutrogena Healthy Skin Anti-Aging Perfector Sunscreen Broad Spectrum SPF 20 Medium to Deep 60; Neutrogena Healthy Skin Anti-Aging Perfector Sunscreen Broad Spectrum SPF 20 Neutral to Tan 40; Neutrogena Healthy Skin Anti-Aging Perfector Sunscreen Broad Spectrum SPF 20 Tan to Medium 50; Neutrogena Healthy Skin Enhancer Sunscreen Broad Spectrum SPF20 - Fair to Light 20; Neutrogena Healthy Skin Enhancer Sunscreen Broad Spectrum SPF20 - Ivory to Fair 10; Neutrogena Healthy Skin Enhancer Sunscreen Broad Spectrum SPF20 - Light to Neutral 30; Neutrogena Healthy Skin Enhancer Sunscreen Broad Spectrum SPF20 - Medium to Olive 60; Neutrogena Healthy Skin Enhancer Sunscreen Broad Spectrum SPF20 - Neutral to Tan 40; Neutrogena Healthy Skin Enhancer Sunscreen Broad Spectrum SPF20 - Tan to Medium 50; Neutrogena Healthy Skin Face Lotion SPF 15; Neutrogena Healthy Skin Face Sunscreen SPF 15; Neutrogena Healthy Skin Glow Sheers Illuminating Tinted Moisturizer - Fair to Light 20 Sunscreen Broad Spectrum SPF30; Neutrogena Healthy Skin Glow Sheers Illuminating Tinted Moisturizer - Ivory to Fair 10 Sunscreen Broad Spectrum SPF30; Neutrogena Healthy Skin Glow Sheers Illuminating Tinted Moisturizer - Light to Medium 30 Sunscreen Broad Spectrum SPF30; Neutrogena Healthy Skin Glow Sheers Illuminating Tinted Moisturizer - Medium to Tan 40 Sunscreen Broad Spectrum SPF30; Neutrogena Healthy Skin Primer Broad Spectrum SPF15; Neutrogena Healthy Skin Radiance Boosts Radiance SPF15; Neutrogena Healthy Skin Radiance Sunscreen Broad Spectrum SPF15; Neutrogena Healthy Skin SPF 15 Face Lotion; Neutrogena Intensified Day Moist. SPF 15 Crm; Neutrogena Intensified Day Moisture SPF 15; Neutrogena Kids Sunblock SPF 30; Neutrogena Men Age Fighter Moisturizer Sunscreen SPF15; Neutrogena Men Triple Protect Face SPF20; Neutrogena Moisture SPF 15; Neutrogena Moisture SPF 15 - Crm; Neutrogena MoistureShine Lip Soother Sunscreen SPF20 - Glaze 60; Neutrogena MoistureShine Lip Soother Sunscreen SPF20 - Gleam 40; Neutrogena MoistureShine Lip Soother Sunscreen SPF20 - Glimmer 15; Neutrogena MoistureShine Lip Soother Sunscreen SPF20 - Glisten 20; Neutrogena MoistureShine Lip Soother Sunscreen SPF20 - Glow 70; Neutrogena MoistureShine Lip Soother Sunscreen SPF20 - Sheen 50; Neutrogena MoistureShine Lip Soother Sunscreen SPF20 - Shimmer 10; Neutrogena MoistureShine Lip Soother Sunscreen SPF20 - Shine 30; Neutrogena MoistureShine Lip Soother Sunscreen SPF20 - Sparkle 45; Neutrogena MoistureShine SPF20 Angels Blush 100; Neutrogena MoistureShine SPF20 Anything Rose 200; Neutrogena MoistureShine SPF20 Berry Burst 400; Neutrogena MoistureShine SPF20 Caramel Kiss 230; Neutrogena MoistureShine SPF20 Cherry Twist 410; Neutrogena MoistureShine SPF20 Coral Dream 500; Neutrogena MoistureShine SPF20 Electric Currant 440; Neutrogena MoistureShine SPF20 Just Whisper 210; Neutrogena MoistureShine SPF20 Mauve On 300; Neutrogena MoistureShine SPF20 Nude Blush 240; Neutrogena MoistureShine SPF20 Peach-A-Boo 510; Neutrogena MoistureShine SPF20 Pinch of Cinn 260; Neutrogena MoistureShine SPF20 Playful Plum 310; Neutrogena MoistureShine SPF20 Plum Paradise 320; Neutrogena MoistureShine SPF20 Pomegranite 430; Neutrogena MoistureShine SPF20 Poppy Red 420; Neutrogena MoistureShine SPF20 Rum Raisin 250; Neutrogena MoistureShine SPF20 Sheer Luck 220; Neutrogena MoistureShine SPF20 Think Pink 110; Neutrogena MoistureShine SPF20 Tickled Pink 120; Neutrogena No-stick Sunblock SPF 30 - Lotion; Neutrogena Norwegian Formula Lip Moisturizer SPF15; Neutrogena OIl Free Moisture Sunscreen SPF 15; Neutrogena Oil-free Sunblock SPF 30; Neutrogena Pore Refining Cream SPF 15; Neutrogena Revitalizing Lip Balm SPF 20 - Fresh Plum 60; Neutrogena Revitalizing Lip Balm SPF 20 - Healthy Blush 20; Neutrogena Revitalizing Lip Balm SPF 20 - Petal Glow 40; Neutrogena Revitalizing Lip Balm SPF 20 - Sheeer Shimmer 10; Neutrogena Revitalizing Lip Balm SPF 20 - Sheer Shimmer 10; Neutrogena Revitalizing Lip Balm SPF 20 - Soft Caramel 50; Neutrogena Revitalizing Lip Balm SPF 20 - Sunny Berry 30; Neutrogena SPF 15; Neutrogena SPF 30; Neutrogena SPF 30 Spray Healthy Defense; Neutrogena SPF 30 Stick; Neutrogena SPF 45; Neutrogena SPF 45 Healthy Defense; Neutrogena Sunblock Cream SPF 30; Neutrogena Sunblock SPF 30; Neutrogena Sunblock Spray SPF 20; Neutrogena Ultra Gentle Soothing SPF15; Neutrogena Ultra Gentle Soothing Sunscreen Broad Spectrum SPF15; Neutrogena Ultra Sheer SPF 30; Neutrogena Ultra Sheer SPF 45; Neutrogena Visibly Even BB Broad Spectrum SPF 30 Fair to Light; Neutrogena Visibly Even BB Broad Spectrum SPF 30 Light to Medium; Neutrogena Visibly Even Moisturizer SPF 15; Neutrogena Visibly Firm Face Lotion SPF 20; Neutrogena Visibly Younger Hand Cream SPF 20; New Hands SPF 15; New Lip Protector Sunscreen SPF15; NexGen Sunscreen Broad Spectrum SPF 36 Doc Martins; Nicole Miller Day Cover Creme To Powder Foundation; Nicole Miller Day Cover Perfecting Foundation; Nicole Miller Daytime Delivery Moisturizing Creme; Nicole Miller Daytime Delivery Moisturizing Lotion; Nicole Miller Timeless Age-defying Hand Creme; Niseko Sunscreen SPF 25; Nivea A Kiss of Berry Swirl Vitamin Enriched Lip Care; Nivea A Kiss of Cherry Fruity Lip Care; Nivea A Kiss of Flavor Strawberry Tinted Lip Care; Nivea A Kiss of Natural Volume Glossy Lip Care; Nivea A Kiss of Protection Lip Care; Nivea A Kiss of Protection Sun Protection Lip Care; Nivea A Kiss of Recovery Medicated Lip Care; Nivea A Kiss of Shimmer Radiant Lip Care; Nivea A Kiss of Shine Natural Look Glossy Lip Care; Nivea A Kiss of Smoothness Lip Care; Nivea A Kiss of Strawberry Fruity Lip Care; Nivea A Kiss of Vitamin Swirl Antioxidant Enriched Lip Care; Nivea For Men Protective; Nivea For Men Q10 Energy; Nivea For Men Sensitive; Nivea Men - Lotion Protectrice Quotidienne SPF 15; Nivea Recovery Medicated Lip Care; Nivea Smoothness Lip Care; Nivea Soothing Care; Nivea Sun; Nivea Visage - Coenzyme Q10 Wrinkle Control Lotion; Nivea Visage Alpha Flavon Perfect Protection Cream; Nivea Visage Alpha Flavon Perfect Protection Lotion; Nivea Visage Coenzyme Q10 Plus Wrinkle Control Lotion; Nivea Visage Facial Moisturizing Creme Spf4; Nivea Visage Facial Moisturizing Lotion Spf4; Nivea Visage Moisturizing Lotion SPF 15; Nivea a Kiss of recovery; Nivea body Natural Tone; No BS SPF20 Moisturizer; No Name Sunblock Lotion 15 SPF; No Name Sunblock Lotion 30 SPF; No Name Sunblock Lotion Kids 30 SPF; No Name Sunblock Lotion Sport 15 SPF; No-AD Hawaiian Style Dark Tanning Oil SPF 4; No-AD Kids Sun Protection SPF 30; No-AD Quality Guaranteed SPF 15 Uva/uvb Sun Protection Lotion; No-AD SPF 4 Sun Tanning Lotion; No-AD SPF 45 Babies Sun Protection; No-AD SPF 45 Face Protection; No-AD SPF 50 Sport Sun Protection; No. 7 Protect & Perfect Day Cream; No7 Advanced Hydration Day Cream Sunscreen SPF 12; No7 Advanced Hydration Day Sunscreen SPF 12; No7 Beautifully Matte Foundation Sunscreen Broad Spectrum SPF 15 Calico; No7 Beautifully Matte Foundation Sunscreen Broad Spectrum SPF 15 Chestnut; No7 Beautifully Matte Foundation Sunscreen Broad Spectrum SPF 15 Cool Beige; No7 Beautifully Matte Foundation Sunscreen Broad Spectrum SPF 15 Cool Ivory; No7 Beautifully Matte Foundation Sunscreen Broad Spectrum SPF 15 Cool Vanilla; No7 Beautifully Matte Foundation Sunscreen Broad Spectrum SPF 15 Deeply Beige; No7 Beautifully Matte Foundation Sunscreen Broad Spectrum SPF 15 Honey; No7 Beautifully Matte Foundation Sunscreen Broad Spectrum SPF 15 Latte; No7 Beautifully Matte Foundation Sunscreen Broad Spectrum SPF 15 Mocha; No7 Beautifully Matte Foundation Sunscreen Broad Spectrum SPF 15 Warm Beige; No7 Beautifully Matte Foundation Sunscreen Broad Spectrum SPF 15 Warm Ivory; No7 Beautifully Matte Foundation Sunscreen Broad Spectrum SPF 15 Wheat; No7 CC Cream Light; No7 CC Cream Medium; No7 CC LIGHT; No7 CC MEDIUM; No7 Lift & Luminate Day Cream SPF 15; No7 Lift and Luminate Day Sunscreen Broad Spectrum SPF 15; No7 Lift and Luminate Foundation Sunscreen Broad Spectrum SPF 15 Calico; No7 Lift and Luminate Foundation Sunscreen Broad Spectrum SPF 15 Chestnut; No7 Lift and Luminate Foundation Sunscreen Broad Spectrum SPF 15 Cool Beige; No7 Lift and Luminate Foundation Sunscreen Broad Spectrum SPF 15 Cool Honey; No7 Lift and Luminate Foundation Sunscreen Broad Spectrum SPF 15 Cool Ivory; No7 Lift and Luminate Foundation Sunscreen Broad Spectrum SPF 15 Cool Vanilla; No7 Lift and Luminate Foundation Sunscreen Broad Spectrum SPF 15 Deeply Beige; No7 Lift and Luminate Foundation Sunscreen Broad Spectrum SPF 15 Deeply Honey; No7 Lift and Luminate Foundation Sunscreen Broad Spectrum SPF 15 Ebony; No7 Lift and Luminate Foundation Sunscreen Broad Spectrum SPF 15 Hazelnut; No7 Lift and Luminate Foundation Sunscreen Broad Spectrum SPF 15 Honey; No7 Lift and Luminate Foundation Sunscreen Broad Spectrum SPF 15 Latte; No7 Lift and Luminate Foundation Sunscreen Broad Spectrum SPF 15 Mocha; No7 Lift and Luminate Foundation Sunscreen Broad Spectrum SPF 15 Toffee; No7 Lift and Luminate Foundation Sunscreen Broad Spectrum SPF 15 Warm Beige; No7 Lift and Luminate Foundation Sunscreen Broad Spectrum SPF 15 Warm Ivory; No7 Lift and Luminate Foundation Sunscreen Broad Spectrum SPF 15 Warm Sand; No7 Lift and Luminate Foundation Sunscreen Broad Spectrum SPF 15 Wheat; No7 Lift and Luminite Day Cream SPF 15; No7 Lifting & Firming Day Cream SPF 8; No7 Lifting and Firming Day Sunscreen SPF 8; No7 Lifting and Firming Foundation SPF 15; No7 Lifting and Firming Foundation Sunscreen SPF 15 Almond 35; No7 Lifting and Firming Foundation Sunscreen SPF 15 Blonde 20; No7 Lifting and Firming Foundation Sunscreen SPF 15 New Ivory 10; No7 Lifting and Firming Foundation Sunscreen SPF 15 Nude 15; No7 Lifting and Firming Foundation Sunscreen SPF 15 Porcelain 05; No7 Lifting and Firming Foundation Sunscreen SPF 15 Truffle 50; No7 Lifting and Firming Foundation Sunscreen SPF 15 Vanilla 25; No7 Lifting and Firming Foundation Sunscreen SPF 15 Walnut 45; No7 Lifting and Firming Skincare System Day Sunscreen SPF 8; No7 Protect & Perfect  Hand Cream SPF 15; No7 Protect and Perfect Day Cream Sunscreen SPF 15; No7 Protect and Perfect Day Sunscreen Broad Spectrum SPF 15; No7 Protect and Perfect Day Sunscreen SPF 15; No7 Protect and Perfect Foundation Sunscreen Broad Spectrum SPF 15 Calico; No7 Protect and Perfect Foundation Sunscreen Broad Spectrum SPF 15 Cool Beige; No7 Protect and Perfect Foundation Sunscreen Broad Spectrum SPF 15 Cool Ivory; No7 Protect and Perfect Foundation Sunscreen Broad Spectrum SPF 15 Cool Vanilla; No7 Protect and Perfect Foundation Sunscreen Broad Spectrum SPF 15 Deeply Beige; No7 Protect and Perfect Foundation Sunscreen Broad Spectrum SPF 15 Deeply Honey; No7 Protect and Perfect Foundation Sunscreen Broad Spectrum SPF 15 Ebony; No7 Protect and Perfect Foundation Sunscreen Broad Spectrum SPF 15 Mocha; No7 Protect and Perfect Foundation Sunscreen Broad Spectrum SPF 15 Wheat; No7 Protect and Perfect Hand Cream Sunscreen Broad Spectrum SPF 15; No7 Protect and Perfect Hand Cream Sunscreen SPF 15; No7 Protect and Perfect Hand Sunscreen SPF 15; No7 Protect and Perfect Skincare System Day Sunscreen SPF 15; No7 Radiant Glow Foundation; No7 Radiant Glow Foundation Sunscreen SPF 15 Buff 15; No7 Radiant Glow Foundation Sunscreen SPF 15 Cocoa 55; No7 Radiant Glow Foundation Sunscreen SPF 15 Cream 05; No7 Radiant Glow Foundation Sunscreen SPF 15 Suede 40; No7 Rebalancing Day Fluid Sunscreen SPF 15; No7 Soft and Sheer Tinted Moisturiser Dark; No7 Soft and Sheer Tinted Moisturiser Fair; No7 Soft and Sheer Tinted Moisturiser Medium; No7 Soft and Sheer Tinted Moisturizer SPF 15; No7 Stay Perfect Foundation; No7 Stay Perfect Foundation Compact; No7 Stay Perfect Foundation Compact Sunscreen SPF 15 Almond; No7 Stay Perfect Foundation Compact Sunscreen SPF 15 Blonde; No7 Stay Perfect Foundation Compact Sunscreen SPF 15 Buff; No7 Stay Perfect Foundation Compact Sunscreen SPF 15 New Ivory; No7 Stay Perfect Foundation Sunscreen Broad Spectrum SPF 15 Calico; No7 Stay Perfect Foundation Sunscreen Broad Spectrum SPF 15 Chestnut; No7 Stay Perfect Foundation Sunscreen Broad Spectrum SPF 15 Cool Beige; No7 Stay Perfect Foundation Sunscreen Broad Spectrum SPF 15 Cool Ivory; No7 Stay Perfect Foundation Sunscreen Broad Spectrum SPF 15 Cool Vanilla; No7 Stay Perfect Foundation Sunscreen Broad Spectrum SPF 15 Deeply Beige; No7 Stay Perfect Foundation Sunscreen Broad Spectrum SPF 15 Ebony; No7 Stay Perfect Foundation Sunscreen Broad Spectrum SPF 15 Honey; No7 Stay Perfect Foundation Sunscreen Broad Spectrum SPF 15 Latte; No7 Stay Perfect Foundation Sunscreen Broad Spectrum SPF 15 Toffee; No7 Stay Perfect Foundation Sunscreen Broad Spectrum SPF 15 Warm Beige; No7 Stay Perfect Foundation Sunscreen Broad Spectrum SPF 15 Warm Ivory; No7 Stay Perfect Foundation Sunscreen Broad Spectrum SPF 15 Wheat; No7 Stay Perfect Foundation Sunscreen Broad Spectrum SPF 15 chestnut; No7 Stay Perfect Foundation Sunscreen SPF 15 05; No7 Stay Perfect Foundation Sunscreen SPF 15 Almond 30; No7 Stay Perfect Foundation Sunscreen SPF 15 Blonde 20; No7 Stay Perfect Foundation Sunscreen SPF 15 Buff 15; No7 Stay Perfect Foundation Sunscreen SPF 15 Cocoa 55; No7 Stay Perfect Foundation Sunscreen SPF 15 Espresso 45; No7 Stay Perfect Foundation Sunscreen SPF 15 Mocha 60; No7 Stay Perfect Foundation Sunscreen SPF 15 New Ivory 10; No7 Stay Perfect Foundation Sunscreen SPF 15 Suede 40; No7 Stay Perfect Foundation Sunscreen SPF 15 Tan 35; No7 Stay Perfect Foundation Sunscreen SPF 15 Truffle 50; No7 Stay Perfect Foundation Sunscreen SPF 15 Vanilla 25; No7 Time Resisting Day Cream SPF 12; No7 Time Resisting Day Cream Sunscreen SPF 12; No7 Time Resisting Day Sunscreen SPF 12; NoTS Crystal CC Cushion No 21; NoTS Crystal CC Cushion No 23; NoTS UV PROTECTION SUN; Noevir 5 Treatment Liquid Foundation Lx; Noevir N5; Noevir Raysela; North Sunx SPF 30 Sunscreen Lotion; North Sunx SPF 30 Sunscreen Towelette; Norwegian Formula Lip Moisturizer SPF 15; NouriFusion; Nourifusion Sunscreen Broad Spectrum SPF 15 Moisturizing Lotion With Conditioning Antioxidant Vitamins A, C & E Normal To Dry; Nourifusion Sunscreen Broad Spectrum SPF 15 Moisturizing Lotion With Conditioning Antioxidant Vitamins A, C & E Normal To Oily; Noxzema Skin Fitness Skin Endurance With Uv Protectant; Nu Colour Moisturshade Liquid Finish SPF 15; Nu Colour Skin Beneficial Tinted Moisturizer SPF 15; Nu Colour Undeviating Lipstick SPF 15 - Stk; Nu Colour Undeviating Lipstick SPF 15(14 Cl); Nu Skin 180 Degree UV Block Hydrator SPF 18; Nu Skin 180 Degree UV Defense Hydrator SPF 18; Nu Skin Moisture Restore Day Protective Lotion SPF 15 Normal to Dry Skin; Nu Skin Nu Colour MoisturShade Finish SPF 15 Amber Mist; Nu Skin Nu Colour MoisturShade Finish SPF 15 Caramel; Nu Skin Nu Colour MoisturShade Finish SPF 15 Delicate Ivory; Nu Skin Nu Colour MoisturShade Finish SPF 15 Golden Beige; Nu Skin Nu Colour MoisturShade Finish SPF 15 Honey Beige; Nu Skin Nu Colour MoisturShade Finish SPF 15 Natural Beige; Nu Skin Nu Colour MoisturShade Finish SPF 15 Saffron Whisper; Nu Skin Nu Colour MoisturShade Finish SPF 15 Sandalwood; Nu Skin Nu Colour MoisturShade Finish SPF 15 Shell Rose; Nu Skin Nu Colour MoisturShade Finish SPF 15 Sunset Beige; Nu Skin Nu Colour Tinted Moisturizer Broad Spectrum SPF 15 Beige; Nu Skin Nu Colour Tinted Moisturizer Broad Spectrum SPF 15 Fair; Nu Skin Nu Colour Tinted Moisturizer Broad Spectrum SPF 15 Honey; Nu Skin Nu Colour Tinted Moisturizer Broad Spectrum SPF 15 Sand; Nu Skin Nu Colour advanced finish broad spectrum SPF 15 - Almond; Nu Skin Nu Colour advanced finish broad spectrum SPF 15 - Beige; Nu Skin Nu Colour advanced finish broad spectrum SPF 15 - Delicate Ivory; Nu Skin Nu Colour advanced finish broad spectrum SPF 15 - Honey Beige; Nu Skin Nu Colour advanced finish broad spectrum SPF 15 - Medium Beige; Nu Skin Nu Colour advanced finish broad spectrum SPF 15 - Medium Ochre; Nu Skin Nu Colour advanced finish broad spectrum SPF 15 - Mocha; Nu Skin Nu Colour advanced finish broad spectrum SPF 15 - Neutral Beige; Nu Skin Nu Colour advanced finish broad spectrum SPF 15 - Ochre; Nu Skin Nu Colour advanced finish broad spectrum SPF 15 - Pink; Nu Skin Nu Colour advanced finish broad spectrum SPF 15 - Pink Ochre; Nu Skin Nu Colour advanced finish broad spectrum SPF 15 - Soft Beige; Nu Skin Nu Colour advanced finish broad spectrum SPF 15 - Sunny Beige; Nu Skin Nu Colour advanced finish broad spectrum SPF 15 - Sunset Beige; Nu Skin Nu Colour advanced finish broad spectrum SPF 15 - Tawny; Nu Skin Nu Colour advanced tinted moisturizer broad spectrum SPF 15 - Beige; Nu Skin Nu Colour advanced tinted moisturizer broad spectrum SPF 15 - Fair; Nu Skin Nu Colour advanced tinted moisturizer broad spectrum SPF 15 - Honey; Nu Skin Nu Colour advanced tinted moisturizer broad spectrum SPF 15 - Medium Beige; Nu Skin Nu Colour advanced tinted moisturizer broad spectrum SPF 15 - Medium Ochre; Nu Skin Nu Colour advanced tinted moisturizer broad spectrum SPF 15 - Natural Beige; Nu Skin Nu Colour advanced tinted moisturizer broad spectrum SPF 15 - Ochre; Nu Skin Nu Colour advanced tinted moisturizer broad spectrum SPF 15 - Pink; Nu Skin Nu Colour advanced tinted moisturizer broad spectrum SPF 15 - Pink Ochre; Nu Skin Nu Colour advanced tinted moisturizer broad spectrum SPF 15 - Sand; Nu Skin Sunright 50 Broad Spectrum SPF 50; Nu Skin Sunright Lip Balm Broad Spectrum SPF 15; Nu Skin Tri-Phasic White Day Milk Broad Spectrum SPF 15; Nu Skin Tri-Phasic White System; Nu Skin ageLOC Me; Nu Skin ageLOC Me Day S1 Broad Spectrum SPF 25; Nu Skin ageLOC Me Day S9 Broad Spectrum SPF 25; Nu Skin ageLOC Me Day T1 Broad Spectrum SPF 25; Nu Skin ageLOC Me Day T9 Broad Spectrum SPF 25; Nu-derm Fx Normal Dry / Normale Sèche; Nu-derm Fx Normal Oily/ Normale Grasse; Nu-derm Healthy Skin Protection SPF 35; Nu-derm Normal Dry/ Normale Sèche; Nu-derm Normal Oily / Normale Grasse; Nu-derm Sun Shield Broad Spectrum SPF 50 Matte Sunscreen; Nu-derm Sun Shield SPF 50 Sunscreen; Nu-derm Sunfader Skin Lightener With Sunscreen (SPF 15) Paba Free; Nu-derm System Normal-dry Skin Transformation; Nu-derm System Normal-dry Skin Transformation Trial; Nu-derm System Normal-oily Skin Transformation; Nu-derm System Normal-oily Skin Transformation Trial; Nu-derm Travel Set Normal/dry Skin Transformation System; NuGLOW DAYTIME THERAPY With SPF 15; Nuance Salma Hayek Renewed Radiance Brightening BB Cream Broad Spectrum SPF 30 Sunscreen; Nuderm Sunfader; Nurigene Nourishing Daytime SPF 15; Nurture & Nourish; Nutra Suncare Ecran Solaire Nutra SPF 30; Nutri-metics Tinted Moisturizing Lipsticks With Spf15; Nutriance Uv Control Skin Protection Creme SPF 8; Nutrimen C Re9 Reality Moisturizing Sunscreen SPF 8; Nutrimenc Re9 Reality Moisturizer With SPF 8; Nutrimin C Re9 Reality Spf8 Day Creme; Nutriminc Re9 Reality Day Creme With SPF 8; Nutrisource Mains SPF 15; Nutrisun Lait Solaire Insectifuge SPF 16; Nutrisun Lait Solaire Insectifuge SPF 30; Nutrisun Lotion Solaire Insectifuge SPF 8; Nutritionist Regenerating Moisturizer Spf15; Nwc 21 Natural Premium Bb Cream; O HUI Perfect Sun Black EX Broad Spectrum SPF 50; OH Age recovery Tri Shield pact 10; OHUI Powdery Metal Cushion Compact 01 Light Beige; OHUI Powdery Metal Cushion Compact 02 Natural Beige; OHUI Sun Science Powder Sun Block Natural Skin; OHUI Sun Science Sun Block EX plus Beige; OHUI Sun Science intensive sunblock cake EX; OHUI White Extreme Illuminating Pact No.10; OP Dark Formula Xtreme Tanning 4; OP Dark Tanning Gel 4; OP Dark Tanning Xtreme Oil Amplifier SPF4; OP Protective Gel 15; OP Protective Mist 15 Oil Free; OP Protective Spray Gel 8; OP Protective Xtreme Tanning 8; OP spf45 Face Clear Zinc Potion; OP spf45 Lip Potion Clear Zinc; ORASER DAILY HAND REPAIR Broad-Spectrum SPF 20 Sunscreen; ORGAPLUS ULTRA PURE SUN 15g; ORGAPLUS ULTRA PURE SUN 22g; Oasis Daily Defense; Obagi; Obagi 360; Obagi 360 HydraFactor Moisturizing Broad Spectrum SPF 30 SUNSCREEN; Obagi C-system C-sunguard SPF 30; Obagi Medical - Nu-Derm System - Normal to Dry - Skin Transformation Kit; Obagi Medical - Nu-Derm System - Normal to Dry - Skin Transformation Trial Kit; Obagi Nu-Derm FX System - Normal to Dry; Obagi Nu-Derm Sunfader; Obagi Sun Shield TINT Cool Sunscreen Broad Spectrum SPF 50; Obagi Sun Shield TINT Warm Sunscreen Broad Spectrum SPF 50; Obagi-C Rx System C-exfoliating Day With Vitamin C; Obagi-C Rx System C-sunguard SPF 30; Obagi-C Rx System Normal-dry Skin Intervention; Obagi-C Rx System Normal-oily Skin Intervention; Obagi-C Rx System Sun Shield Broad Spectrum SPF 50 Matte Sunscreen; Obagi-C System; Obagi-C System Skin Intervention Kit Ensemble Intervention; Ocean Potion Moisturizing Lip Potion 45; Ocean Potion Oil SPF 4; Ocean Potion Spray Gel SPF 8; Oclipse Daily Sheer Broad-spectrum Sunscreen SPF 50; Oclipse Sun Spray SPF 50 Broad Spectrum Sunscreen SPF 50 for Face + Body; Octinoxate; Octinoxate Lotion SPF 18; Octinoxate,octisalate,avobenzone,octocrylene,ensulizole,titanium Dioxide; Off Skintastic 1 Insect Repell.with Sunscrn.; Ohui Age Recovery Tri Shield Pact 10; Ohui The First Cell Revolution Age Control Sun Block; Oil Clearing Matte Moisturizer; Oil Control Mattifier SPF 15; Oil Control Mattifier SPF 15 Pa++; Oil Control testers SPF 15; Oil Controlling Makeup SPF 15; Oil Free Active Sunscreen Lotion SPF 15; Oil Free Matte Defense SPF 20; Oil Free Moisturizer; Oil Free SPF 30 Sunblock Lotion; Oil Free Sunscreen Lotion SPF 30; Oil Of Olay Colormoist Lipstick; Oil Of Olay Complete Care Daily Uv Protection Moisturizing Cream; Oil Of Olay Complete Care Daily Uv Protection Moisturizing Lotion; Oil Of Olay Complete Radiance Compact Foundation; Oil Of Olay Daily Uv Protectant Moist Crm; Oil Of Olay Protective Moisture Creme; Oil Of Olay Protective Moisture Lotion; Oil Of Olay Protective Renewal Lotion; Oil Of Olay Total Effects Lipcolor; Oil of Beauty; Oil-Control Day SPF 15; Oil-Free Daily Hydration SPF 15; Oil-control Day Lotion SPF 15; Oil-free Sun Block Liq SPF 15; Oil-free Sunscreen SPF 30; Oil-free Sunspray SPF 15; Oil-free Sunspray Spf10 Asp; Oil-free Tinted Nourisher; Olay Age Defying Advanced With Hyaluronic Acid Hydrating Moisturizer Lotion With Sunscreen; Olay Age Defying Advanced with Hyaluronic Acid Hydrating MoisturizerProtective Renewal Broad Spectrum SPF 15; Olay Age Defying Classic Daily Renewal Broad Spectrum SPF 15; Olay Age Defying Classic Daily Renewal Lotion With Sunscreen; Olay Age Defying Classic Protective Renewal Broad Spectrum SPF 15; Olay Age Defying Mature Skin Broad Spectrum SPF 15; Olay Age Defying Mature Skin Protective Renewal Broad Spectrum SPF 15; Olay Complete All Day Moisture Sensitive with Broad Spectrum SPF 15; Olay Complete All Day Moisture With Sunscreen Broad Spectrum SPF 30 Sensitive; Olay Complete All Day Moisturizer Broad Spectrum SPF 15 Sensitive; Olay Complete All Day Moisturizer Broad Spectrum SPF 30 Sensitive Skin; Olay Complete All Day Moisturizer Sensitive Broad Spectrum SPF 15; Olay Complete All Day Moisturizer with Sunscreen Broad Spectrum SPF 30 Sensitive; Olay Complete Allday Moisture Cream - Uv Defense; Olay Complete Allday Moisture Lotion - Uv Defense; Olay Complete Plus Ultra Rich Day Cream; Olay Complete Plus Ultra Rich Uv Moisturizer; Olay Complete Radiance Tinted Moisturizer; Olay Complete Spf30 Defense All Day Moisturizer - Sensitive Skin; Olay Complete UV365 Daily Moisturizer Sensitive Broad Spectrum SPF 15; Olay Complete Uv365* Daily Moisturizing Cream With Sunscreen Broad Spectrum SPF 15 Sensitive; Olay Complete Uv365* Daily Moisturizing Lotion With Sunscreen Broad Spectrum SPF 15 Sensitive; Olay Complete Uv365* Daily Moisturizing Lotion With Sunscreen Broad Spectrum SPF 30 Sensitive; Olay Regenerist Day and Night Trial Pack; Olay Regenerist Micro Sculpting Moisturizer Broad Spectrum SPF 30; Olay Regenerist Micro-sculpting Cream With Sunscreen Broad Spectrum SPF 30; Olay Total Effects 7 In One Anti-aging Moisturizer With Sunscreen Broad Spectrum SPF 30 Fragrance Free; Ole Henriksen Truth Revealed Brightening Broad Spectrum SPF 15 Moisturizer; Oligo 25 Fluide SPF 15; Omar Sharif Everyday Sun Protection Broad Spectrum SPF 50; Omar Sharif Silk Brilliance Foundation Broad Spectrum SPF 20; Omar Sharif Silk Essence Foundation Broad Spectrum SPF 24; Omar Sharif Silk Sun BB Broad Spectrum SPF 45; Ombrelle Lotion Extreme SPF 30; Ombrelle Lotion SPF 15; Ombrelle Lotion SPF 30; Ombrelle Lotion SPF 30 Pour Enfants; Ombrelle Spray SPF 15; Ombrelle Spray SPF 15 Liq; Ombrelle Vapo Sport SPF 15; Ombrelle-15 Lot; Once Finishing; One Essential City Defense; Optical Illusion Foundation SPF 15; Optimal Tinted Complexion; Optimum Bronzage Ensoleillement Fort; Orange Mango Blast; Orchid Secret Foundation 21 Spf28 Pa Plus Plus; Orchid Secret Foundation 23 Spf28 Pa Plus Plus; Orchid Secret Pact Spf35 Pa Plus Plus Plus 21 Orchid Ivory; Orchid Secret Pact Spf35 Pa Plus Plus Plus 23 Orchid Beige; Orchid Secret Spf30 Pa Plus Plus; Orchidee Imperiale - Exceptional Complete Care - The Uv Beauty Protector With Sunscreen Broad Spectrum SPF 50 Universal Shade; Origins A PERFECT WORLD AGE DEFENSE TINTED MOISTURIZER SPF 15; Origins A Perfect World SPF 15 Age-defense Tinted Moisturizer With White Tea; Origins A Perfect World SPF 40 Age-defense Moisturizer With White Tea; Origins Brighter By Nature SPF 30 Skin Tone Correcting Makeup; Origins Ginzing SPF 40 Energy-boosting Tinted Moisturizer; Origins Plantscription SPF 15 Anti-aging Foundation; Origins Plantscription SPF 25 Anti-aging Cream; Origins Rain and Shine Liptint With SPF 10 Sunscreen; Origins Smarty Plants Cc SPF 20 Skin Complexion Corrector; Oscar de la Renta Moisturizing Sunscreen SPF 30; Othree 50 Whitening; Outback 2 in 1 Protection; Outback 2-in-1 Insect Repellent and Protective Sunscreen; Outback Series 2-in-1 Sunscreen; Oxy Daily Moisturizer With SPF 15; PAUL and JOE SILKY SMOOTH FOUNDATION UV 101; PCA SKIN Body Hydrator SPF30; PERFECT 6 in one BB Light; PERFECT 6 in one BB Natural; PHACE BIOACTIVE SOOTHING DAY Plus PRIMER BROAD-SPECTRUM SPF 46; PREP (plus) PRIME BEAUTY BALM SPF 35; PREP and PRIME FACE PROTECTION SPF 50; PROVENCE CALENDULA AQUA SUN 35g; PROVENCE CALENDULA PERFECT SUN BLOCK 150mL; PRPL dual cover cushion No 21 cre am ivory Cushion; PRPL dual cover cushion No 23 vanilla beige Cushion; Pacific Merchants Hollister California Lifeguard Lip Balm Baume A Levres Garde Cote De California; Palmer's Cocoa Butter Formula Body Lotion SPF 15; Pamela Metamorphosis Sunscreen SPF 30; Panama Jack 30 Broad Spectrum SPF 30 Clear Zinc; Panama Jack SPF 15; Panama Jack SPF 4; Panama Jack SPF 4 Dark Tanning Oil; Panama Jack SPF 8; Panama Jack SPF 8 with instant bronzer; Parismist Day Cream; Parrot Head Dedicated to Sunshine Oil 4; Parrot Head Dedicated to Sunshine Tan Enhancer 15; Parrot Head Dedicated to Sunshine Tan Enhancer 8; Parsol Suncare SPF 29; Parure De Lumiere Light-diffusing Foundation With Sunscreen Moisture Infusion Broad Spectrum SPF 25 01 Beige Pale; Parure De Lumiere Light-diffusing Foundation With Sunscreen Moisture Infusion Broad Spectrum SPF 25 02 Beige Clair; Parure De Lumiere Light-diffusing Foundation With Sunscreen Moisture Infusion Broad Spectrum SPF 25 03 Beige Naturel; Parure De Lumiere Light-diffusing Foundation With Sunscreen Moisture Infusion Broad Spectrum SPF 25 04 Beige Moyen; Parure De Lumiere Light-diffusing Foundation With Sunscreen Moisture Infusion Broad Spectrum SPF 25 05 Beige Fonce; Parure De Lumiere Light-diffusing Foundation With Sunscreen Moisture Infusion Broad Spectrum SPF 25 12 Rose Clair; Parure De Lumiere Light-diffusing Foundation With Sunscreen Moisture Infusion Broad Spectrum SPF 25 13 Rose Naturel; Parure De Lumiere Light-diffusing Foundation With Sunscreen Moisture Infusion Broad Spectrum SPF 25 23 Dore Naturel; Parure De Lumiere Light-diffusing Foundation With Sunscreen Moisture Infusion Broad Spectrum SPF 25 31 Ambre Pale; Patricia Wexler Intensive 3-in-1 Day Cream with Sunscreen Broad Spectrum SPF 28; Patricia Wexler Skin Brightening Daily Moisturizer with Sunscreen Broad Spectrum SPF 28; Patricia Wexler Universal Anti-Aging Moisturizer with Sunscreen Broad Spectrum SPF 28; Patricks Sunscreen; Paul and Joe Protective Foundation Primer Uv; Paul and Joe Silky Smooth Foundation Uv 100; Paul and Joe Silky Smooth Foundation Uv 102; Paul and Joe Silky Smooth Foundation Uv 103; Paul and Joe Silky Smooth Foundation Uv 201; Paul and Joe Silky Smooth Foundation Uv 301; Paul and Joe Silky Smooth Foundation Uv 302; Pc SPF Fps 30 Sport Sunscreen Lotion; Peach Sake Pore Bb Spf20 Pa Plus Number1 Light Beige; Peach Sake Pore Bb Spf20 Pa Plus Number2 Natural Beige; Peach Sake Sun Spf32 Pa Plus Plus; Pear SPF 30 Broad Spectrum; Pearlixime ILLUMINATING PERFECTING Sunscreen Broad Spectrum SPF 15; Peppermint SPF 15 Broad Spectrum Lip Balm; Perfect Balance Sunsafe Sunblock SPF 24; Perfect Bb for Men; Perfect Bust Body; Perfect Climate Sportwear Tint Crm; Perfect Day 2 in 1 Everywear SPF 50 and Mint Condition Lip Shield SPF 30 Supergoop; Perfect Legs Skin Protector SPF 30; Perfect Sun Kids Sunscreen protector against solar rays for children, face and body SPF 50 FM; Perfect Truth Cc CRème; Perfect Truth cc Broad Spectrum SPF 30 Ole Henriksen; Perfecting Day Cream Broad Spectrum SPF 30 Pa +++; Perfecting Makeup Broad Spectrum SPF 25; Perfecting Protection SPF 30; Perfection Lumiere Velvet Smooth-effect Makeup Broad Spectrum SPF 15 Sunscreen, 10 Beige; Perfection Lumiere Velvet Smooth-effect Makeup Broad Spectrum SPF 15 Sunscreen, 12 Beige Rose; Perfection Lumiere Velvet Smooth-effect Makeup Broad Spectrum SPF 15 Sunscreen, 20 Beige; Perfection Lumiere Velvet Smooth-effect Makeup Broad Spectrum SPF 15 Sunscreen, 22 Beige Rose; Perfection Lumiere Velvet Smooth-effect Makeup Broad Spectrum SPF 15 Sunscreen, 30 Beige; Perfection Lumiere Velvet Smooth-effect Makeup Broad Spectrum SPF 15 Sunscreen, 40 Beige; Perfection Lumiere Velvet Smooth-effect Makeup Broad Spectrum SPF 15 Sunscreen, 50 Beige; Perfection Lumiere Velvet Smooth-effect Makeup Broad Spectrum SPF 15 Sunscreen, 60 Beige; Perfection Lumiere Velvet Smooth-effect Makeup Broad Spectrum SPF 15 Sunscreen, 70 Beige; Perfectionist Youth-Infusing Makeup Broad Spectrum SPF 25; Performance Moisturizer SPF 15; Performance Sunscreen SPF 45 Cream; Perricone Tinted Moisturizer SPF 15; Perrigo Hydroquinone with sunscreens; Persimmon & Cantaloupe Moisturizing Day Cream SPF 32; Persimmon and Cantaloupe Day Sunscreen Broad Spectrum SPF 32 Oily to Normal; Personal Match Ideal Shade Makeup Maquillage Teinte Idéale SPF/fps 15; Petroleum-Free Lip Balm; Pharma Plus Baby Sunblock Lotion 30 SPF; Pharma Plus Sport Sunblock 30 SPF; Pharma Plus Sport Sunblock Lotion 30 SPF; Pharma Plus Sunblock 30 SPF; Pharmaskincare Solar-C Moisturizer SPF 15; Pharmaskincare Solar-C Moisturizer SPF 50; Phaze 6 + Hydrator Plus SPF 15; Phaze 7 Protecting Hydrator SPF 15; Phaze 8 Body Hydrator SPF 15; Phelityl Day Lotion SPF 15; Phelityl Day SPF 15; Phenomen-A Jour; Phineas and Ferb Sun Smacker SPF 24 Berry Busted; Phineas and Ferb Sun Smacker SPF 24 Secret Agent Strawberry; Phineas and Ferb Sun Smacker SPF 24 Vanilla Vacation; Photo Dynamic Therapy SPF 30; Photo Finish; Photo-radiance Treatment Traitement Photo-éclat SPF/fps 15 Uva/uvb; Photogenic Lumessence; Phytogenic Infinite EX Powder Foundation SPF 20; Phytogenic Infinte 37100457; Phytogenic Infinte EX 37100452; Phytogenic Infinte EX 37100453; Pina Colada Body SPF 30 Broad Spectrum; Pineapple SPF 30 Broad Spectrum; Pineapple Sunscreen Lip Moisturizer; Pink Lemonade SPF 15 Lip Balmer; Pink Stick; Pixi Sun Mist SPF 30; Pixi Sun Serum SPF 30; Pl-1849; Placenta EX Day Spf30 Pa Plus Plus; Placenta EX Essence Bb Spf50plus Pa Plus Plus Plus; Placenta EX Sun Balm Spf50plus Pa Plus Plus Plus; Plagentra Baby Suncity; Plagentra Soothing Revolution Bb; Plagentra Soothing Revolution Suncity; Planet Sun SPF 30; Plantscription Anti-aging Broad Spectrum SPF 25; Plantscription SPF 15 Anti-aging Foundation; Plenitude-excell A-3 Fluide Spf8; Plenitude-fluide Hydrat.prot.quot.n-G SPF 12; Plenitude-fluide Hydratant Prot Quot Spf12; Plenitude-fluide Hydratant Quotidien SPF 15; Plustem UV Perfect Block Essence; Plénitude - Effaceur Rides SPF 15; Pollen UV Perfect Daily Sunscreen; Polo Sport - Face Fitness SPF 8 - Crm - 7.5%; Polyphenol C15; Polysporin Lip Protectant; Pomegranate SPF 15 Lip; Pond's Age Defying Eye Cream With SPF 8; Pond's Daily Replenishing Moisturizer Lotion With Spf15; Pond's Prevent - Crm; Pond's Prevent SPF 15; Pond's Prevent SPF 15 Cream; Pond's Prevent SPF 15 Lotion; Pond's Replenishing Moist Lot W Sunsc SPF 15; Pond's Replenishing Moisturizer Lotion SPF 15; Ponds Luminous Finish BB cream Light SPF 15; Ponds Luminous Finish BB cream Medium SPF 15; Porcelain Always color stay-on Makeup Broad Spectrum SPF 15 Jafra; Porcelain Expert Finish Makeup Broad Spectrum SPF 25 Merle Norman; Porcelana Day Skin Lightening; Porcelana Medicated Fade Crm Sunscreen Fmla; Positively Ageless Tinted Moisturizer; Positively Radiant Cc Cream SPF 30 Fair To Light; Positively Radiant Cc Cream SPF 30 Medium; Positively Radiant Daily Moisturizer SPF 15; Powder Foundation SPF 20; Powdery Creme Foundation With Sunscreen SPF 15 and Non-medicinal Mixed Fruits Aha's; Powerproof Sunscreen 100; Premium BB Cream UVA/UVB SPF36 0 Pale; Premium BB Cream UVA/UVB SPF36 1 Natural; Premium BB Cream UVA/UVB SPF36 2 Beige; Premium BB Cream UVA/UVB SPF36 3 Medium; Premium Endurance Sunscreen 30; Premium Endurance Sunscreen 50; Premium Sunscreen Face SPF-50; Premium Sunscreen SPF-30; Premium Ultra Uv Pure Sun; Prep (and) Prime Bb Beauty Balm SPF 35 Broad Spectrum Suncreen; Prep (and) Prime Cc Color Correct Spf30 Broad Spectrum; Prep Plus Prime Bb Beauty Balm Compact Broad Spectrum SPF 30; Prep and Prime Fortified Skin Enhancer SPF 35; Prescriptives All You Need + Broad Spectrum Moisture Cream SPF 15; Prescriptives All You Need + Broad Spectrum Moisture Lotion SPF 15; Prescriptives All You Need + Continuous Action 24 Hour Moisture SPF 15 for Drier Skins; Prescriptives All You Need + Continuous Action 24 Hour Moisture SPF 15 for Normal Skins; Prescriptives All You Need + Continuous Action 24 Hour Moisture SPF 15 for Oilier Skins; Prescriptives Anti-age Advanced Protection Eye Cream SPF 25; Prescriptives Anti-age Advanced Protection Lotion SPF 25; Prescriptives Anti-age Advanced Protection Moisturizer SPF 25; Prescriptives Anywear Multi-finish Compact Foundation SPF 12; Prescriptives Anywear Multipurpose Makeup Stick SPF 15; Prescriptives Flawless Skin Total Protection Makeup SPF 15; Prescriptives Flawless Skin Total Protection Pressed Powder Uva/uvb SPF 15; Prescriptives Incredible Sheer Lipcolor SPF 15; Prescriptives Site Unseen Brightening Concealer Broad Spectrum SPF 15; Prescriptives Site Unseen Brightening Concealer SPF 15; Prescriptives Sunsheen Custom Color Tinted Self Tanner Uva/uvb Sunscreen SPF 15 for Face and Body; Prescriptives Super Line Corrector Lifting Day Cream SPF 15; Prescriptives Virtually Fresh Skin Refining Makeup Uva/uvb SPF 15; President's Choice Sport Sunblock Lotion SPF 15; President's Choice Sport Sunblock Lotion SPF 30; President's Choice Sunblock Lotion SPF 15; President's Choice Sunblock Lotion SPF 30; President's Choice Sunblock Lotion for Babies SPF 45; President's Choice Sunblock Lotion for Children SPF 30; President's Choice Sunless Tanning Cream SPF 15; President's Choice Sunscreen Lotion SPF 8; Presidents Choice; Prestige Light Response; Prestige Snail Lip Treatment; Presun 15 Cream Sunscreen; Presun 29 Cream Sunscreen; Presun 29 Cream Sunscreen for Kids; Presun 29 Sunscreen Cream Spf29; Presun 29 Sunscreen for Kids Crm Spf29; Presun 30 Clear Gel Sunscreen; Presun 30 Cream Sunscreen; Presun 30 Cream Sunscreen for Kids; Presun 30 for Kids Cream Sunscreen; Presun Ultra 15 Cream; Presun Ultra 15 Gel; Presun Ultra 27 for Kids Spray; Presun Ultra 30 Cream; Presun Ultra 30 Gel; Presun Ultra 30 for Kids Cream; Pretty by Flormar BB 001 Light; Pretty by Flormar BB 002 Light Medium; Pretty by Flormar BB 003 Dark Medium; Pretty by Flormar BB 004 Medium Beige; Pretty by Flormar BB 005 Natural Beige; Pretty by Flormar Cover up Foundation 001 Porcelain; Pretty by Flormar Cover up Foundation 002 Pink Porcelain; Pretty by Flormar Cover up Foundation 003 Light Ivory; Pretty by Flormar Cover up Foundation 004 Ivory; Pretty by Flormar Cover up Foundation 005 Soft Beige; Pretty by Flormar Cover up Foundation 006 Beige; Pretty by Flormar Cover up Foundation 007 Neutral; Pretty by Flormar Cover up Foundation 008 Medium Beige; Pretty by Flormar Cover up Foundation 009 Golden Beige; Pretty by Flormar Cover up Foundation 010 Sand; Pretty by Flormar Cover up Foundation 011 Honey; Pretty by Flormar Cover up Foundation 012 Amber; Pretty by Flormar Cover up Foundation 013 Caramel; Pretty by Flormar Cover up Foundation 014 Dark Caramel; Pretty by Flormar Mattifying Foundation 001 Porcelain; Pretty by Flormar Mattifying Foundation 002 Pink Porcelain; Pretty by Flormar Mattifying Foundation 003 Light Ivory; Pretty by Flormar Mattifying Foundation 004 Ivory; Pretty by Flormar Mattifying Foundation 005 Soft Beige; Pretty by Flormar Mattifying Foundation 006 Beige; Pretty by Flormar Mattifying Foundation 007 Neutral; Pretty by Flormar Mattifying Foundation 008 Medium Beige; Pretty by Flormar Mattifying Foundation 009 Golden Beige; Pretty by Flormar Mattifying Foundation 010 Sand; Pretty by Flormar Mattifying Foundation 011 Honey; Pretty by Flormar Mattifying Foundation 012 Amber; Pretty by Flormar Mattifying Foundation 013 Caramel; Pretty by Flormar Mattifying Foundation 014 Dark Caramel; Pretty by Flormar Weigthless Foundation 001Porcelain; Pretty by Flormar Weigthless Foundation 002 Pink Porcelain; Pretty by Flormar Weigthless Foundation 003 Light Ivory; Pretty by Flormar Weigthless Foundation 004 Ivory; Pretty by Flormar Weigthless Foundation 005 Soft Beige; Pretty by Flormar Weigthless Foundation 006 Beige; Pretty by Flormar Weigthless Foundation 007 Neutral; Pretty by Flormar Weigthless Foundation 008 Medium Beige; Pretty by Flormar Weigthless Foundation 009 Golden Beige; Pretty by Flormar Weigthless Foundation 010 Sand; Pretty by Flormar Weigthless Foundation 011 Honey; Pretty by Flormar Weigthless Foundation 012 Amber; Pretty by Flormar Weigthless Foundation 013 Caramel; Pretty by Flormar Weigthless Foundation 014 Dark Caramel; Prevage Anti Aging Eye Sunscreen SPF 15; Prevage Anti Aging Moisture Broad Spectrum Sunscreen SPF 30; Prevage Anti Agining Triple Defense Shield Broad Spectrum Sunscreen SPF 50; Prevage Anti-aging Eye Cream SPF 15; Prevage Anti-aging Foundation; Prevage Anti-aging Moisture Cream SPF 30; Prevage Anti-aging Moisture Lotion SPF 30; Prevage Anti-aging Triple Defense SPF 50 Sunscreen Sheer Lotion; Preventage Hand Treatment Merle Norman; Prevention + Daily Matte Moisturizer Oil-free; Prevention + Daily Ultimate Protection Moisturizer; Prevention + Daily Ultra Sheer Spray; Prime Primer Bb Nude; Prime Primer Bb Sheer; Prime Protection SPF 15; Primer Broad Spectrum Sunscreen; Primordiale Optimum SPF 15 Peau Normale A Mixte; Primordiale Optimum SPF 15 Peau Normale A Seche; Primordiale Skin Recharge CRème/cream; Primordiale Skin Recharge Lotion; Principal Secret Advanced with Hydrospheres Continuous Moisture SPF8; Principal Secret Reclaim Botanical (with SP) Radiant Recovery Day Broad Spectrum SPF 15; Principal Secret Reclaim Radiance Foundation SPF15 Light Medium; Principal Secret Reclaim Radiance Foundation SPF15 Medium; Principal Secret Reclaim Revolutionary Anti-aging Day SPF 15; Private Label Moisturizing Oil Free Paraben Free SPF43; Pro Hydro-nutritive Foundation SPF 15/ Base De Maquillaje Hidro - Nutritiva Fps 15 (beige 1) - Brown; Pro Hydro-nutritive Foundation SPF 15/ Base De Maquillaje Hidro - Nutritiva Fps 15 (beige 2) - Brown; Pro Hydro-nutritive Foundation SPF 15/ Base De Maquillaje Hidro - Nutritiva Fps 15 (beige 3) - Brown; Pro Hydro-nutritive Foundation SPF 15/ Base De Maquillaje Hidro - Nutritiva Fps 15 (beige 4) - Brown; Pro Hydro-nutritive Foundation SPF 15/ Base De Maquillaje Hidro - Nutritiva Fps 15 (beige 5) - Brown; Pro Hydro-nutritive Foundation SPF 15/ Base De Maquillaje Hidro - Nutritiva Fps 15 (beige 6) - Brown; Pro Hydro-nutritive Foundation SPF 15/ Base De Maquillaje Hidro - Nutritiva Fps 15 (rosa 1) - Pink; Pro Hydro-nutritive Foundation SPF 15/ Base De Maquillaje Hidro - Nutritiva Fps 15 (rosa 2) - Pink; Pro Hydro-nutritive Foundation SPF 15/ Base De Maquillaje Hidro - Nutritiva Fps 15 (rosa 3) - Pink; Pro Hydro-nutritive Foundation SPF 15/ Base De Maquillaje Hidro - Nutritiva Fps 15 (rosa 4) - Pink; Pro Hydro-nutritive Foundation SPF 15/ Base De Maquillaje Hidro - Nutritiva Fps 15 (rosa 5) - Pink; Pro Hydro-nutritive Foundation SPF 15/ Base De Maquillaje Hidro - Nutritiva Fps 15 (rosa 6) - Pink; Pro Laser Body; Pro Lumière; Pro Retinol 100% Vegetal Fluide Defenseur; Pro SPF 15 Sport Lotion; Pro SPF 30 Sport Lotion; Pro Triple Protection Factor Face and Body Broad Spectrum SPF 30 Sunscreen; Pro Triple Protection Factor Lip Balm Broad Spectrum SPF 30 Sunscreen; Pro Vive SPF 30; Pro-Tect Everyday Sunscreen SPF 15; Pro-Tect Sports Sunscreen SPF 20; Pro-Tect Sunscreen for Professionals; Pro-Tect Sunscreen for Professionals SPF 30; Pro-derm 50; Pro-derm Cream; Pro-derm Creme De Jour Optimal; Pro-derm Fps 60 SPF; Pro-tec Sport Lotion; Pro-tect Everyday Sunscreen SPF 15; Proactiv Oil Free Moisture SPF 15 Moisturizer; Proactiv SPF 15 Moisturizer; Proactiv Sheer Tint Moisture SPF 15; Proactiv Solution BB Broad Spectrum SPF 15 (Light, Medium, Dark); Proactiv Solution Daily Protection Plus Sunscreen SPF 30; Proactiv Solution Oil Free Moisture SPF 15 Moisturizer; ProactivPlus SPF Protection SPF 15; Proeven Bb Cream; Propol-guard Lip Balm; Propolis 20 BB Cream; Propolis 27 Cover Cushion; Protect and Prime Broad Spectrum SPF30; Protecting Body Oil SPF 15; Protecting Day Lotion SPF 15; Protecting Hydrator SPF 30; Protecting SPF 30 Spray; Protecting Self-tan Lotion SPF 15; Protecting Sun Care Lotion SPF 15; Protecting Sun Care Lotion SPF 25; Protecting Sun Care Lotion SPF 8; Protecting Suncare Lotion SPF 15 Prevention Soleil; Protection 50 Body; Protection 50 Sport; Protection Cream; Protective Body Sunscreen; Protective Day; Protective Day (UVA/UVB) SPF 25; Protective Foundation Sunscreen SPF 15; Protective Lip Care Extreme Shine; Protective Lip Conditioner; Protective Lotion SPF 15 Sunscreen; Protective Moisture Lotion SPF 15; Protective Moisturizer SPF 15; Protective Moisturizing Fluid Pour Homme - for Men; Protective Self Tan; Protective Self Tan SPF 15; Protector R Plus; Protectyl Soleil CRème Solaire Hydratante Fps 30; Protectyl Soleil Moisturizing Sunscreen Lotion Minimal Protection Spf10; Protectyl Soleil Moisturizing Sunscreen Lotion Moderate Protection Spf15; Protectyl Soleil Moisturizing Sunscreen Spray Moderate Protection Spf15; Protectyl Soleil Suntan Lotion Bronzing Effect Tanning SPF 4; Protectyl soleil moisturizing sunscreen lotion high protection spf 30; Provence Air Skin Fit Bb Crea M 01 Light Beige; Provence Air Skin Fit Bb Crea M 02 Natural Beige; Provence Air Skin Fit Blur Pact; Provence Air Skin Fit Foundation Ginger Beige C02; Provence Air Skin Fit Foundation Pink Beige C01; Provence Air Skin Fit Foundation W01 Light Beige; Provence Air Skin Fit Foundation W02 Natural Beige; Provence Air Skin Fit Make Up Base 01 Pink; Provence Air Skin Fit Make Up Base 02 Green; Provence Air Skin Fit Oi L Control Bb Cushion 01 Light Beige; Provence Air Skin Fit Oi L Control Bb Cushion 02 Natural Beige; Provence Air Skin Fit Pact 02 Natural Beige; Provence Calendula Aqua Cooling Sun; Provence Calendula Aqua Sun; Provence Calendula Aqua Sun Ge L; Provence Calendula Daily Sun Block; Provence Calendula Daily Sun Block Spf50 Plus; Provence Calendula Fresh Sun; Provence Calendula Fresh Sun Ge L; Provence Calendula Ice Puff Sun; Provence Calendula Mild Sun Block; Provence Calendula Mild Sun Block Spf35; Provence Calendula No Sebum Sun Block; Provence Calendula No Sebum Sun Block Spf45; Provence Calendula Perfect Sun Block; Provence Calendula Waterproof Sun Block; Provence Foundation Spf31 Pa Plus Plus No 21; Provence Foundation Spf31 Pa Plus Plus No 23; Provence Intensive Ampoule Bb 01 Light Beige; Provence Intensive Ampoule Bb 02 Natural Beige; Provence Intensive Ampoule Bb Cushion 01 Light Beige; Provence Intensive Ampoule Bb Cushion 02 Natural Beige; Provence Intensive Ampoule Foundation 01 Light Beige; Provence Intensive Ampoule Foundation 02 Natural Beige; Provence Intensive Ampoule Make Up Base 01 Mint; Provence Intensive Ampoule Make Up Base 02 Lavender; Provence Makeup Base Spf30 Pa Plus Plus 01 Mint; Provence Makeup Base Spf30 Pa Plus Plus 02 Lavender; Provence Melting Foundation Bright Beige Spf32 Pa Plus Plus; Provence Melting Foundation Natural Beige Spf32 Pa Plus Plus; Provence Two Way Pact Spf50plus Pa Plus Plus Plus 01 Light Beige; Provence Two Way Pact Spf50plus Pa Plus Plus Plus 02 Natural Beige; Provence Water Drop Pact 21 Light Beige; Provence Water Drop Pact 23 Natural Beige; Publix Sunscreen SPF 15; Pucker Up Lip Balm; Pura Vida Sunscreen; Pure Bb 21 Light Beige; Pure Bb 23 Light Beige; Pure Bb Cre Am 21 Light Beige; Pure Bb Cre Am 23 Natural Beige; Pure Bright SPF 25; Pure Cashmere Skin Defense Makeup SPF 15 Jafra; Pure Champagne Skin Defense Makeup SPF 15 Jafra; Pure Color 01 Bright Pink; Pure Color 02 Natural Beige; Pure Color Cre Am 01 Bright Pink; Pure Color Cre Am 02 Natural Beige; Pure Defense Fluide SPF 15; Pure Finish Mineral Tinted Moisturizer SPF 15; Pure Finish Mineral Tinted Moisturizer SPF 15 Deep; Pure Finish Mineral Tinted Moisturizer SPF 15 Fair; Pure Finish Mineral Tinted Moisturizer SPF 15 Light; Pure Finish Mineral Tinted Moisturizer SPF 15 Medium; Pure Ivory Skin Defense Makeup SPF 15 Jafra; Pure Perfection Classic Oil Free Moisturizer With SPF 15; Pure Porcelain Skin Defense Makeup SPF 15 Jafra; Pure Sheer Angelique; Pure Sheer Aurore; Pure Sheer Bianca; Pure Sheer Greta; Pure Sheer Lara; Pure Sheer Paloma; Pure Shine Cover Bb 01 Pink Beige; Pure Shine Cover Bb 02 Natural Beige; Pure Shine Vanilla Makeup Base 01 Vanila Green; Pure Shine Vanilla Makeup Base 01 Vanilla Green; Pure Shine Vanilla Makeup Base 02 Vanila Pink; Pure Shine Vanilla Makeup Base 02 Vanilla Pink; Pure Tan Skin Defense Makeup SPF 15 Jafra; PureLight SPF50; Purlisse BB Tinted Moist; Purlisse BB Tinted Moist Light; Purlisse BB Tinted Moist SPF30 Deep; Purlisse BB Tinted Moist SPF30 Fair; Purlisse BB Tinted Moist SPF30 Light; Purlisse BB Tinted Moist SPF30 Medium; Purlisse BB Tinted Moist SPF30 Medium Deep; Purminerals 4-in-1 14-Hour Wear Foundation Broad Spectrum SPF 15 (BLUSH MEDIUM); Purminerals 4-in-1 14-Hour Wear Foundation Broad Spectrum SPF 15 (DEEP); Purminerals 4-in-1 14-Hour Wear Foundation Broad Spectrum SPF 15 (DEEPER); Purminerals 4-in-1 14-Hour Wear Foundation Broad Spectrum SPF 15 (GOLDEN DARK); Purminerals 4-in-1 14-Hour Wear Foundation Broad Spectrum SPF 15 (GOLDEN MEDIUM); Purminerals 4-in-1 14-Hour Wear Foundation Broad Spectrum SPF 15 (LIGHT TAN); Purminerals 4-in-1 14-Hour Wear Foundation Broad Spectrum SPF 15 (LIGHT); Purminerals 4-in-1 14-Hour Wear Foundation Broad Spectrum SPF 15 (MEDIUM DARK); Purminerals 4-in-1 14-Hour Wear Foundation Broad Spectrum SPF 15 (TAN); Purple Stick; Purpose; Purpose Alpha Hydroxy Moisture Cream SPF 15; Purpose Alpha Hydroxy Moisture Lotion SPF 15; Purpose Dual Treatment Moisture Lotion With SPF 15; Purpose Sunscreen; Qt Sun Block; Queens Rose Perfection Cover Cushion Pact; Queens Rose Whole In One Sunblock; Quercetin & Oak Hydrating Antiageing Antiwrinkle Day Cream; Quercetin & Oak Hydrating Antiageing Antiwrinkle Day Cream SPF 4; Quick Fluid Week-end; Quiet Rose Always Color Stay-On Makeup SPF 10; Quiet Rose Always color stay-on Makeup Broad Spectrum SPF 15 Jafra; Quince Whitening Sun SPF 34 Pa Plus Plus; Quintessence Q-Sunshade Leave In Hair Conditioner and Scalp Protectant SPF 30; Quo Cc Cream; Quo Light Diffusing Makeup SPF 8; Quo Lip Tint SPF 15; Quo Luminous Finish Foundation; Quo Minimal Makeup SPF-10; Quo Skin Tints; Quo Total Perfection Foundation With SPF 15; R.E.M. Day SPF 30; R.E.M. SPF 30; R.P. Sol; R2; R2 System; RED GINSENG RADIANCE CUSHION BB No.21; RED GINSENG RADIANCE CUSHION BB No.23; REPASKIN FACIAL SUNSCREEN BROAD-SPECTRUM SPF 30 50ml; REVITALIZING MOISTURIZING Sunscreen SPF 20; RITUALS Miracle Foundation broad spectrum SPF 15 sunscreen Beige Pink; RITUALS Miracle Foundation broad spectrum SPF 15 sunscreen Bronzing Beige; RITUALS Miracle Foundation broad spectrum SPF 15 sunscreen Golden Beige; RITUALS Miracle Foundation broad spectrum SPF 15 sunscreen Golden Honey; RITUALS Miracle Foundation broad spectrum SPF 15 sunscreen Ivory; RITUALS Miracle Foundation broad spectrum SPF 15 sunscreen Ivory Beige; RITUALS Miracle Foundation broad spectrum SPF 15 sunscreen Mahogany; RITUALS Miracle Foundation broad spectrum SPF 15 sunscreen Pink Beige; RITUALS Miracle Foundation broad spectrum SPF 15 sunscreen Warm Almond; RITUALS Miracle Foundation broad spectrum SPF 15 sunscreen Warm Beige; Rachel K Mineral Cc Blemish Balm; RadiaBlock; Radiance Foundation Broad Spectrum SPF 20 - Bare JAFRA; Radiance Foundation Broad Spectrum SPF 20 - Bronze JAFRA; Radiance Foundation Broad Spectrum SPF 20 - Fair JAFRA; Radiance Foundation Broad Spectrum SPF 20 - Honey JAFRA; Radiance Foundation Broad Spectrum SPF 20 - Natural JAFRA; Radiance Foundation Broad Spectrum SPF 20 - Nude JAFRA; Radiance Foundation Broad Spectrum SPF 20 - Spicy JAFRA; Radiance Foundation Broad Spectrum SPF 20 - Tawny JAFRA; Radiance Tinted Moisturizer Broad Spectrum SPF20 Light; Radiance Tinted Moisturizer Broad Spectrum SPF20 Medium 02; Radiant C Body Lotion SPF 15; Radiant C UVA/UVB Sunscreen; Radiant Skin Moisturizer SPF 15 Lotion; Rain and Shine Liptint With SPF 10 Sunscreen; Raspberry-lemonade Blast With SPF 15; Ray Defense Borad Spectrum SPF 30 sunscreen Biolements; Ray Defense Broad Spectrum SPF 30; Ray Defense SPF 30 Sunscreen; Rayito de Sol SPF 35; Re20 Ultra Sun Defense Special Set Broad Spectrum SPF 44; Re20 Ultra Sun Defense Special Set SPF 44; Re9 Advanced Deluxe Try Me Set; Re9 Advanced Extra Moisture Restorative Cream With SPF 20; Re9 Advanced Restorative Cream With SPF 20; Re9 Advanced Set - All Skin Types; Re9 Advanced Set - Extra Moisture; Re9 Advanced for Men Facial Moisturizer With SPF 20; Re9 Advanced for Men Set; Re9 Advanced for Men Travel Set; ReCreate Foundation Beige; ReCreate Foundation Chestnut; ReCreate Foundation Cool Bisque; ReCreate Foundation Cool Sand; ReCreate Foundation Honey; ReCreate Foundation Ivory; ReCreate Foundation Natural; ReCreate Foundation Porcelain; ReCreate Foundation Walnut; ReCreate Foundation Warm Bisque; ReCreate Foundation Warm Sand; ReCreate Foundation Warm Walnut; ReNK Velvet in pact No.21; ReVive Fermitif Neck Renewal SPF 15; ReVive Sensitif Oil Free Broad Spectrum SPF 15 Sunscreen; Real Deal Foundation DEEP; Real Deal Foundation FAIR; Real Deal Foundation LIGHT; Real Deal Foundation MEDIUM; Real Deal Foundation MEDIUM DEEP; Recapture 360 Day plus IR Defense; Recapture Day Plus IR Defense; Rectifiance Intense - Creme Retexturante Anti-age-SPF 15; Rectifiance Intense-fluide Retexturant Anti-age-spf15; Red Current Protective Moisturizer SPF 30; Red Element Daily Moisturizing Creme With SPF 15; Red Element Daily Moisturizing Lotion With SPF 15; Red Ginseng Fermented Essence Bb Spf50plus Pa Plus Plus Plus; Red Ginseng Fermented Sun Spf50plus Pa Plus Plus Plus; Red Orange Sun Pact SPF 50 Plus Pa Plus Plus Plus; Red Stick; Rederm Moisturizing Lotion SPF 30; Redness Relief SPF 20; Redness Solutions Makeup SPF 15 With Probiotic Technology; Reef Kids SPF 30; Reef Safe SPF 15; Reef Safe SPF 30; Reef Safe SPF 36; Reef Safe SPF 45; Refinish; Refreshing Sunscreen Mist Brumisateur D'écran Solaire Rafraîchissant; Refreshing Sunscreen Spray Vaporisateur D'écran Solaire Rafraîchissant; Regemarine Extreme; Regeneration Daily Protection Creme Broad Spectrum SPF 50; Rejuva Moisturizing Day Cream SPF 15; Rejuva Moisturizing Day Cream SPF 30; Rejuvaderm Medispa Body; Rejuvaderm Medispa sunscreen; Rejuvenating BB; Rejuvenating Face Moisturizer SPF 30; Rejuvenating Foundation SPF 15; Rejuvenating Foundation SPF-15; Reman Homme Sun Protection; Rendrevie Sun Screen SPF35 PA; Renergie Intense Lift SPF 15; Renergie Lift Makeup; Renergie Lift Makeup SPF 20; Renergie Microlift R.A.R.E.; Renergie Microlift SPF 15; Renew Mirra Deep Moisture Day; Renewed Hope In A Jar SPF 30; Renewing Antioxidant Treatment SPF 6 GNLD International; Renewing Treatment; Renove ROYAL PERFECT BB SPF 30; Renove ROYAL PERFECT HAND Broad Spectrum SPF 15; Renove Royal Perfect Color Control Cushion SPF 37 / PA; Renove UV Shield Broad Spectrum SPF 50; Renutriv Ultimate Radiance Makeup SPF 15; Rep Nutrinature Recovery Advanced Bb; Rep Nutrinature Recovery Advanced Bb Spf50; Repairwear Laser Focus Line Smoothing Broad Spectrum SPF 15 -very Dry To Dry Combination; Repairwear Lift SPF 15 Firming Day Combo To Oily Skin; Repairwear Lift SPF 15 Firming Day Dry Combo Skin; Repairwear Uplifting Firming Broad Spectrum SPF 15 Dry; Repairwear Uplifting Firming Broad Spectum SPF 15 - Normal Combo To Combination Oily; Repel Lotion 20 Ipf Insect Block 15 SPF Sunb; Replenish Day Cream SPF 15; Replenishing Moisture Lotion SPF 15; Replenishing Sunscreen SPF 36; Rescue Squad Broad Spectrum SPF 25; Resilience Lift Extreme Creme Compact Makeup SPF 15; Resilience Lift Extreme Radiant Lifting Makeup SPF 15; Resilience Lift Extreme Ultra Firming SPF 15; Resilience Lift Face & Throat Lotion SPF 15; Resilience Lift Face and Throat Creme SPF 15; Resilience Lift Firming Sculpting Face and Neck Creme SPF 15 Nml Combo; Resilience Lift Firming Sculpting Face and Neck Spf15 Normal Combo Skin; Resilience Lift Firming Sculpting Face and Neck Spf15 for Dry Skin; Resilience Lift Firming/sculpting Face and Neck Broad Spectrum SPF 15 Nml/combo; Resilience SPF 15 Elastin Refirming Creme; Resist Daily Mattifying Fluid Broad Spectrum SPF 50; Resist Ultimate Hand Cream Broad Spectrum SPF 30; Restorative Day Moisture SPF 15; Retin C; Retinol Day SPF 30 CVS; Retinol Hand SPF 15 Anti-age Care; Retisol-A; Retroactive + Day Youth Extending Cream SPF/fps 25 Uva/uvb; Revaléskin Day Cream; Revelage Arbonne Brightening Moisture Face Cream With SPF 30; Revelage Arbonne Brightening Moisture Hand Cream With SPF 30; Revelage Brightening Moisture Face Cream With SPF 30; Revelage Brightening Moisture Hand Cream With SPF 30; Revelation Age-resisting Hand Creme SPF 15; Reversa CRème Radiance Fps 30; Reversa Creme Contour Des Yeux Fps30; Reversa Creme Fps30; Reversa Sunscreen Cream SPF 30; Reversa Sunscreen Cream SPF 50+; Reversa Uv Creme Contour Des Yeux; Reversa Uv Creme Visage Et Cou Fps 15; Reversa Uv Fluide Hydratant Non Gras Fps 15; Revitalift SPF 18; Revitalizing Concealer - Stk 5%; Revitalizing Hand Lotion With SPF 15; Revitalizing Liquid Make-UP - 5%; Revitalizing Lotion With SPF 15; Revitalizing Moisturizer With SPF 15; Revitalizing Q10 Moisturizer; Revive; Revive Moisturizing Renewal; Revlon Age Defying 3x Concealer; Revlon Age Defying Cc Cream; Revlon Age Defying DNA Advantage CC Cream; Revlon Age Defying Firming + Lifting Makeup; Revlon Age Defying Firming Lifting Makeup SPF 15; Revlon Age Defying Light Make Up SPF 30; Revlon Age Defying Make Up for Dry Skin; Revlon Age Defying Makeup SPF 10; Revlon Age Defying Moisturizing Concealer; Revlon Age Defying with DNA Advantage SPF 20; Revlon Colorstay Active Light Makeup SPF 25; Revlon Kiss Balm; Revlon Kiss Balm SPF 20; Revlon Moisturestay Protective Liptint; Revlon Moisturous Lip Color SPF 17; Revlon Nearly Naked Makeup; Revlon PhotoReady BB Cream Skin Perfector; Revlon Photoready; Revlon Photoready Airbrush Effect Makeup; Revlon Photoready Bb Cream; Revlon Photoready Concealer; Revlon Photoready Powder; Revlon SPF 15 Lipgloss; Revlon Shine Control Mattifying Powder SPF 10; Revlon Skinlights Diffusing Tint SPF 15; Revlon Skinlights Diffusing Tint SPF 15 (shade - Caramel); Revlon Skinlights Instant Skin Brightener SPF 15; Revlon Super Lustrous Shiny Sheer SPF 15; Rexall 30 SPF Sunblock Lotion; Rexall Daily Sunblock Lotion SPF 15; Rexall Kids Daily Sunblock Lotion SPF 30; Rexall Oil Free SPF 30 Daily Sunblock Lotion; Rexall Sport 30 SPF Sunblock Lotion; Rich Almond Perfecting Makeup Broad Spectrum SPF 25 Merle Norman; Rich Girl Hand; Rich Lip Color SPF 12; Rich Nutrient Skin Refiner; Riche CRème SPF Fps 20 Wrinkle Smoothing Day Lotion; Riche CRème SPF/fps 20 Fluide Bienfaisant Anti-rides Jour; Riche Creme Wrinkle Smoothing Day; Riche Creme:  Soin Jeunesse Decollete Fps 8; Riche Creme: Soin Des Mains Fps 6; Rides & éclat CRème Resplendissante Jour Fps 20; Rimmel BB Beauty Balm Light; Rimmel BB Beauty Balm Medium; Rimmel BB Beauty Balm Medium Dark; Rimmel BB Cream 9-IN-1 Skin Perfecting Super Makeup Light Medium; Rimmel BB Cream 9-in-1 Skin Perfecting Super Makeup Light; Rimmel BB Cream 9-in-1 Skin Perfecting Super Makeup Medium; Rimmel BB Cream Beauty Balm Dark; Rimmel BB Cream Beauty Balm Light; Rimmel BB Cream Beauty Balm Light Medium; Rimmel BB Cream Beauty Balm Medium; Rimmel BB Cream Beauty Balm Radiance SPF 20 Light; Rimmel BB Cream Beauty Balm Radiance SPF 20 Medium; Rimmel BB Cream Beauty Balm Very Light; Rimmel BB Cream Matte 9-IN-1 Skin Perfecting Super Makeup SPF 15 Light; Rimmel BB Cream Matte 9-IN-1 Skin Perfecting Super Makeup SPF 15 Light Medium; Rimmel BB Cream Matte 9-IN-1 Skin Perfecting Super Makeup SPF 15 Medium Dark; Rimmel Insta Flawless Perfecting Radiant Skin Tint Light Medium; Rimmel Insta Flawless Perfecting Radiant Skin Tint Medium Dark; Rimmel London Match Perfection Foundation; Rimmel London Match Perfection Foundation - Classic Beige (250); Rimmel London Match Perfection Foundation - Ivory (120); Rimmel London Match Perfection Foundation - Natural Beige (440); Rimmel London Match Perfection Foundation - Natural Caramel (520); Rimmel London Match Perfection Foundation - Natural Ivory (260); Rimmel London Match Perfection Foundation - Nude (340); Rimmel London Match Perfection Foundation - Sand (330); Rimmel London Match Perfection Foundation - Soft Beige (240); Rimmel London Match Perfection Foundation - Soft Honey (430); Rimmel London Match Perfection Foundation - Soft Ivory (220); Rimmel London Match Perfection Foundation - True Ivory (130); Rimmel London Match Perfection Foundation - True Nude (320); Rimmel London Match Perfection Foundation - Warm Caramel (530); Rimmel London Match Perfection Foundation - Warm Ivory (230); Rimmel London Match Perfection Foundation - Warm Sand (420); Rimmel London Moisture Renew Lipgloss - Active Mauve (135); Rimmel London Moisture Renew Lipgloss - Berry Bliss (245); Rimmel London Moisture Renew Lipgloss - Cherry Boost (585); Rimmel London Moisture Renew Lipgloss - Comfortably Nude (116); Rimmel London Moisture Renew Lipgloss - Coral Reflection (119); Rimmel London Moisture Renew Lipgloss - Fuscia Theraphy (345); Rimmel London Moisture Renew Lipgloss - Hydra Beige (120); Rimmel London Moisture Renew Lipgloss - Mauve Renew (125); Rimmel London Moisture Renew Lipgloss - Peach Fusion (117); Rimmel London Moisture Renew Lipgloss - Pink Benefit (105); Rimmel London Moisture Renew Lipgloss - Pink Protect (145); Rimmel London Moisture Renew Lipgloss - Pink Remedy (110); Rimmel London Moisture Renew Lipgloss - Pink Spa (365); Rimmel London Moisture Renew Lipgloss - Purple Rescue (335); Rimmel London Moisture Renew Lipgloss - Red Action (565); Rimmel London Moisture Renew Lipgloss - Rose Cocoon (115); Rimmel London Moisture Renew Lipgloss - SOS Red (525); Rio-bronze SPF 30 Towelettes; Risarium Black Rice Extreme Age-defying Line Reducing Moisture Face Cream SPF 15; Rite Aid Daily Moisturizer SPF 15; Rite Aid Essential Defense SPF 45; Rite Aid Renewal Sunscreen; Rite Aid Sunscreen; RoC Multi Correxion 5 in 1 Perfecting Sunscreen Broad Spectrum SPF 25; Robanda Anti-Aging Hand; Roc Chronoblock; Roc Hydra+ Bio Active Anti-oxidant Bio-moisturizing Care SPF 30 Dry Skin; Roc Minesol Protect Ultra High Protection Suncare Cream SPF 60; Roc Retin-OX Correxion 5-IN-1 Skin Perfector Bb Cream SPF 25; Roc Retinol Actif Pur Day SPF 15; Roc Soya Unify SPF 15; Roccos Old School Sunscreen SPF 30; Rocky Mountain Broad Spectrum SPF 30; Rocky Mountain KIDS Broad Spectrum SPF 30; Rocky Mountain Sunscreen; Rodan & Fields Proactiv Solution:  Oil Free Moisture With SPF 15; Rodan & Fields Proactiv Solution: Daily Protection Plus Sunscreen SPF 15; Rodan & Fields Proactiv Solution: Sheer Tint Moisture SPF 15 (sunbronze, Suntan, Sunlight); Rodan and Fields Essentials UVA/UVB; Roris Shiny Cc Spf37 Pa Plus Plus Plus; Rosa Graf Forty Plus Protect; Rosa Graf Suntime Special; Rosaliac Cc Creme; Rosasol; Rose Skin Care Anti-aging SPF 30; Rouge Dior 470 Pearly Pink Serum; Rouge Dior 510 Nude Serum; Rouge Dior 560 Radiant Pink Serum; Rouge Dior 640 Soft Pink Serum; Rouge Dior 650 Peach Serum; Rouge Dior 660 Garnet Serum; Rouge Dior 670 Pink Ruby Serum; Rouge Dior 710 Beige Serum; Rouge Dior 730 Coral Serum; Rouge Dior 740 Rosewood Serum; Rouge Dior 760 Raspberry Serum; Rouge Dior 840 Crimson Serum; Rouge Dior 850 Red Serum; Rouge Dior 860 Violet Serum; Rouge Dior 870 Ruby Serum; Rouge Dior 880 Plum Serum; Rouge Dior 910 Mocha Serum; Rouge Dior Serum de Rouge Luminous Color Lip Treatment 650; Rouge Dior Serum de Rouge Luminous Color Lip Treatment 660; Rouge Dior Serum de Rouge Luminous Color Lip Treatment 850; Royal and Ancient Suncreen; Rubelli Water Glow Sun; Ruby Cell 4u Sun; Ruby Cell 4u Total Bb; Rv Paque - Ont; Rv Paque Ont; Ryan Sheckler's Orange Lip Balmer SPF 15; Rénergie Lift; SARAH CHAPMAN London SKINESIS Dynamic Defence Anti-Ageing Day SPF 15; SARAH CHAPMAN London SKINESIS Dynamic Defence Concentrate Anti-Ageing Day Cream SPF 15; SCREENSES Tinted facial make-up cream; SCRUBS Solar Guard Sunscreen Wipe SCRUBS Solar Guard; SENSE Daytime Protective Broad Spectrum SPF 15; SEPHORA CC Care Color SPF 20 sunscreen; SEPHORA ROUGE BALM SUNSCREEN SPF20 B01-Delicate Pink; SEPHORA ROUGE BALM SUNSCREEN SPF20 B03-Enchanting Blush; SEPHORA ROUGE BALM SUNSCREEN SPF20 B04-Sweet Fuchsia; SEPHORA ROUGE BALM SUNSCREEN SPF20 B05-Gentle Coral; SEPHORA ROUGE BALM SUNSCREEN SPF20 B06-Soft Red; SEPHORA ROUGE BALM SUNSCREEN SPF20 B07-Bashful Beige; SEPHORA ROUGE BALM SUNSCREEN SPF20 B08-Subtle Peony; SEPHORA ROUGE BALM SUNSCREEN SPF20 B09-Mild Plum; SH 18 Whitening; SH18 Skin Lightening; SH18 Ultra Harmonie Carrot Beauty; SHISEIDO FUTURE LX TOTAL RADIANCE FOUNDATION E Golden 1; SHISEIDO FUTURE LX TOTAL RADIANCE FOUNDATION E Golden 2; SHISEIDO FUTURE LX TOTAL RADIANCE FOUNDATION E Golden 3; SHISEIDO FUTURE LX TOTAL RADIANCE FOUNDATION E Golden 4; SHISEIDO FUTURE LX TOTAL RADIANCE FOUNDATION E Neutral 1; SHISEIDO FUTURE LX TOTAL RADIANCE FOUNDATION E Neutral 2; SHISEIDO FUTURE LX TOTAL RADIANCE FOUNDATION E Neutral 3; SHISEIDO FUTURE LX TOTAL RADIANCE FOUNDATION E Neutral 4; SHISEIDO FUTURE LX TOTAL RADIANCE FOUNDATION E Rose 2; SHISEIDO FUTURE LX TOTAL RADIANCE FOUNDATION E Rose 3; SHISEIDO FUTURE LX TOTAL RADIANCE FOUNDATION E Rose 4; SHISEIDO Future LX Day/Jour; SHISEIDO THE MAKEUP PERFECT SMOOTHING COMPACT FOUNDATION (Refill) B20; SHISEIDO THE MAKEUP PERFECT SMOOTHING COMPACT FOUNDATION (Refill) B40; SHISEIDO THE MAKEUP PERFECT SMOOTHING COMPACT FOUNDATION (Refill) B60; SHISEIDO THE MAKEUP PERFECT SMOOTHING COMPACT FOUNDATION (Refill) I00; SHISEIDO THE MAKEUP PERFECT SMOOTHING COMPACT FOUNDATION (Refill) I20; SHISEIDO THE MAKEUP PERFECT SMOOTHING COMPACT FOUNDATION (Refill) I40; SHISEIDO THE MAKEUP PERFECT SMOOTHING COMPACT FOUNDATION (Refill) I60; SHISEIDO THE MAKEUP PERFECT SMOOTHING COMPACT FOUNDATION (Refill) O20; SHISEIDO THE MAKEUP PERFECT SMOOTHING COMPACT FOUNDATION (Refill) O40; SHISEIDO THE MAKEUP PERFECT SMOOTHING COMPACT FOUNDATION (Refill) O60; SHISEIDO THE MAKEUP PERFECT SMOOTHING COMPACT FOUNDATION (Refill) O80; SHISEIDO URBAN ENVIRONMENT Oil-FREE UV PROTECTOR; SHISEIDO WASO COLOR-SMART DAY MOISTURIZER oil-free; SIROT 24-Hour Hand Care Transformative Glass Technology Age-Fighting Protection Day and Night; SIROT Essential Day Transformative Glass Technology Anti-Aging Sunscreen Broad Spectrum SPF 20; SIROT The Complete Beauty Experience Transformative Glass Technology The First Steps to Younger Looking Skin; SISLEYA Global Anti-Age Hand care SPF 15; SImply Beige Always color stay-on Makeup Broad Spectrum SPF 15 Jafra; SKIN 79 Super Plus Beblesh Balm Triple Functions SPF25 PA (40g); SKIN CAVIAR CONCEALER FOUNDATION SUNSCREEN SPF 15 - Beige; SKIN CAVIAR CONCEALER FOUNDATION SUNSCREEN SPF 15 - Creme Blush; SKIN CAVIAR CONCEALER FOUNDATION SUNSCREEN SPF 15 - Creme Peche; SKIN CAVIAR CONCEALER FOUNDATION SUNSCREEN SPF 15 - Golden Beige; SKIN CAVIAR CONCEALER FOUNDATION SUNSCREEN SPF 15 - Honey Beige; SKIN CAVIAR CONCEALER FOUNDATION SUNSCREEN SPF 15 - Ivoire; SKIN CAVIAR CONCEALER FOUNDATION SUNSCREEN SPF 15 - Mocha; SKIN CAVIAR CONCEALER FOUNDATION SUNSCREEN SPF 15 - Peche; SKIN CAVIAR CONCEALER FOUNDATION SUNSCREEN SPF 15 - Sand Beige; SKIN CAVIAR CONCEALER FOUNDATION SUNSCREEN SPF 15 - Soft Beige; SKIN CAVIAR CONCEALER FOUNDATION SUNSCREEN SPF 15 - Soleil Peche; SKIN79 Super Plus Beblesh Balm Triple Functions SPF25 PA (5g); SKINFOOD ALOE SUN BB 02 Natural Skin; SLMD Moisturizer with SPF; SNP Animal Panda Luminous Cover Cushion; SNP Animal Tiger Long-lasting Cover Cushion; SOL LEON Sunscreen SPF 30; SOLAR SENSE CLEAR ZINC SUNSCREEN BROAD SPECTRUM SPF 50 Plus; SOLAR SENSE CLEAR ZINC SUNSCREEN Baby Tear Free FACE AND BODY BROAD SPECTRUM SPF 50; SOLAR SENSE CLEAR ZINC SUNSCREEN Baby Tear Free FACE and BODY BROAD SPECTRUM SPF 50 PLUS; SOLAR SENSE CLEAR ZINC SUNSCREEN FACE and BODY BROAD SPECTRUM SPF 50; SOLAR SENSE CLEAR ZINC SUNSCREEN FACE and BODY BROAD SPECTRUM SPF 70; SOLAR SENSE CLEAR ZINC SUNSCREEN FACE and BODY SPORT BROAD SPECTRUM SPF 50 Plus; SOLAR SENSE CLEAR ZINC SUNSCREEN FACE and LIPS BROAD SPECTRUM SPF 50; SOLAR SENSE CLEAR ZINC SUNSCREEN FACE and LIPS BROAD SPECTRUM SPF 50 Plus; SOLAR SENSE CLEAR ZINC SUNSCREEN FACE and LIPS BROAD SPECTRUM SPF 70; SOLAR SENSE CLEAR ZINC SUNSCREEN SPORT BROAD SPECTRUM SPF 50 Plus; SPF #15 Sunscreen Lotion; SPF #30 Sunscreen Lotion; SPF 15; SPF 15 Anti-shine moisturizing; SPF 15 Daily Moisturizer; SPF 15 Fps Lip Formula; SPF 15 High Resolution Refill 3x; SPF 15 Lip Balm; SPF 15 Lip Conditioner; SPF 15 Lotion; SPF 15 Lotion W/bronzer; SPF 15 Oil Free Daytime Smoothing Lotion; SPF 15 Oil Free Sunscreen Spray; SPF 15 Performance Bodycare Sunscreen Spray; SPF 15 Protective Balm with UVA/UVB Sunscreens; SPF 15 Self Tanner; SPF 15 Self Tanner Lotion; SPF 15 Spray Gel; SPF 15 Spray Gel W/bronzer; SPF 15 Spray-ON Sunscreen; SPF 15 Sunburn Protection Lotion; SPF 15 Sunscreen; SPF 15 Sunscreen Spray With Insect Repellent; SPF 15 for Body; SPF 15 for Men Maca Root Energetic Face Protector; SPF 15.fps 15 Sunscreen Lip Balm Baume Solaire Pour Les Lèvres Watch Your Mouth; SPF 20 Sport; SPF 20 Sports Blend; SPF 20 Uva/uvb; SPF 30; SPF 30 Alcohol-free Spray Sunscreen; SPF 30 Alcohol-free Spray-ON Sunscreen; SPF 30 Body Sunscreen; SPF 30 Body Sunscreen Fragrance Free; SPF 30 Fps; SPF 30 Fps Sport Spray; SPF 30 Kids Alcohol-free Spray Sunscreen; SPF 30 Kids Alcohol-free Spray-ON Sunscreen; SPF 30 Kids Cream Sunscreen; SPF 30 Kids Spray-ON Sunscreen; SPF 30 Kids Sunscreen Lotion; SPF 30 Lip Balm; SPF 30 Mineral Sunscreen Face Neck; SPF 30 Moisturizing Defense Day Cream; SPF 30 Moisturizing Defense Eye Cream; SPF 30 Oil Free Sunblock Cream; SPF 30 Oil Free Sunscreen Spray; SPF 30 Performance Sunscreen Cream; SPF 30 Performance Sunscreen Spray; SPF 30 Sheer sunscreen face Ulta; SPF 30 Signature Premium Endurance Sunscreen; SPF 30 Sport Sunscreen Lotion; SPF 30 Sport Sunscreen Spray; SPF 30 Spray-ON Alcohol-free Sunscreen; SPF 30 Stay Put Sunscreen; SPF 30 Sun Protection Lotion; SPF 30 Sun Protection for All Seasons; SPF 30 Sunburn Protection Lotion; SPF 30 Sunburn Protection Lotion for Kids; SPF 30 Sunscreen; SPF 30 Sunscreen Continuous Spray Solution for Kids; SPF 30 Sunscreen Lotion; SPF 30 Sunscreen Skier's Defense; SPF 30 Sunscreen Stick; SPF 30 Sunscreen Tottle; SPF 30 Sunscreen Tottle w Carabiner; SPF 30 Sunscreen Towelette; SPF 30 Sunscreen with Soybean; SPF 30 Uva/uvb Continuous Spray No Pumping Needed Sun Protection; SPF 30 With Titanium Dioxide; SPF 30+ Spray-ON Sunscreen; SPF 30+ Sunscreen; SPF 32 Sunscreen Hawaiian; SPF 4; SPF 4 Sunscreen Lotion; SPF 4 Sunscreen Lotion With Bronzer; SPF 40 Sport Spray; SPF 40 Uva/uvb; SPF 45; SPF 45 Sunscreen Lotion; SPF 50 Broad Spectrum Kids; SPF 50 Broad Spectrum Ultrathon; SPF 50 Face Sunscreen Bioelements; SPF 50 Signature Premium Endurance Sunscreen; SPF 50 Signature Premium Endurance Tinted Face; SPF 50 Stay Put Sunscreen; SPF 50+ Fps Ultra; SPF 50+ Fps Ultra Lotion; SPF 60; SPF 60 Baby Sunscreen Continuous Spray Lotion; SPF 60 Baby Sunscreen Lotion; SPF 60 Baby Sunscreen Stick; SPF 8; SPF 8 Lotion; SPF 8 Oil Free Sunscreen Spray; SPF 8 Sun Protection for All Seasons; SPF 8 Sunscreen Uva/uvb Protection Lotion; SPF Fps 15 Mentha Lip Balm Stick; SPF Fps 40 Lotion; SPF Fps 40 Spray; SPF Rx - SPF 15 Spearmint Lip Balm; SPF Rx - SPF 50 Spearmint Lip Balm; SPF Rx - Ultra-Clear Daily Skin Hydrator SPF 50; SPF-15 Daily Protection for Photosensitive Skin; SPF-20 Face Primer; SPF-20 Sunscreen; SPF-60; SPF/fps 15; SPF/fps 30 Broad Spectrum Alcohol Free Sunscreen; SPF/fps 30 Broad Spectrum Sunscreen Spray; SPF/fps 30 Sport Eco Lips; SPF/fps 33 Dermatone Moisturizing Uva/uvb Sunscreen Creme; SPF/fps 50 Broad Spectrum Alcohol Free Sunscreen; SPF15 sunscreen; SPF30 SUNSCREEN and SPF15 LIP BALM Combo; SPF30 Sunscreen; SPF30 sunscreen; SRB 3 Lighting White Sun; SSLT2 Sun Screen; SUBLIME DEFENSE Anti-Aging Blurring Moisturizer SPF 30; SUN Solar Defense Hydrating; SUN Solar Defense Oil-free Gel SPF 15; SUNLEYA Age minimizing sun care SPF 15; SUPER CREME SOLAIRE CORPS Body sun care SPF 15; SUPER ORIGIN COLLAGEN WATERPROOF BB 45g; Sable Radiance Foundation Broad Spectrum SPF 20 - Tawny JAFRA; Safe Sea; Safe Sea For Kids Sunscreen With Jellyfish Sting Protective SPF 30 Plus; Safe Sea SPF 40; Safe Sea SPF 50; Safe Sea SPF 50 KIDS; Safe Sea SPF 60; Safe Sea Sunscreen With Jellyfish Sting Protective SPF 15; Safe Sea Sunscreen With Jellyfish Sting Protective SPF 30; Safe Sea Sunscreen With Jellyfish Sting Protective SPF 50; Salon Direct Hand Cream; Sand Expert Finish Makeup Broad Spectrum SPF 25 Merle Norman; Sandy Beige Always Color Stay-On Makeup SPF 10; Sandy Beige Always color stay-on Makeup Broad Spectrum SPF 15 Jafra; Sandy Beige Expert Finish Makeup Broad Spectrum SPF 25 Merle Norman; Satin Hands Hand Cream; Satin Satisfaction Lip Color; Satin Satisfaction Lip Color/colore-Lèvres; Save Face AM Moisturizer Broad Spectrum SPF 35 Supergoop; Savex 15 Ont SPF-15; Savvy Plus Moisture Lipstick SPF 20; Sayuki Anti-aging Daily Moisturizer SPF 30; Sayuki Broad Spectrum SPF 30 Anti-Aging Daily Moisturizer Sunscreen; Sb 10 SPF 30; Sbs 15 Crm; Sbs Professional Sunscreen SPF 33 Crm; Scape SPF 30 Lip Balm; Scar Zone Scar Cream; Scar Zone Topical Scar Diminishing; Screen; Screenses Color Sunscreen Broad Spectrum SPF50 Light; Sea & Ski All Day 30; Sea & Ski SPF 15 Advanced Sunblock; Sea & Ski SPF 30 Advanced Sunblock; Sea & Ski SPF 30 Sport Sunblock; Sea & Ski SPF 50 Advanced Sunblock; Sea & Ski SPF 50 Baby Sunblock; Sea & Ski SPF 50 Faces Sunblock; Sea & Ski SPF 50 Kids Sunblock; Sea & Ski SPF 50 Platinum Sunscreen; Sea & Ski Sport SPF 50; Sea and Ski SPF 15 Sport Sunblock; Seacret CC Cream Color Corrector; Seacret CC Cream Color Corrector Broad Spectrum SPF 15 - Dark; Seacret CC Cream Color Corrector Broad Spectrum SPF 15 - Medium; Seacret CC Cream Color Corrector Broad Spectrum SPF 15 Light; Seaweed Mattifying Moisture Lotion SPF 15; Seaweed Moisturizer SPF15; Seaweed Oil-Control SPF 15; Seaweed Oil-control Lotion SPF 15; Sebamed SPF 25 Lip Defense; Sebamed Sun Cream SPF 16; Sebamed Sun Cream SPF 20; Sebamed Sun Cream SPF 28; Sebamed Sun Cream SPF 8; Sebamed Sun Lotion SPF 16; Sebamed Sun Lotion SPF 20; Sebamed Sun Lotion SPF 8; Sebastian Sun Smacker SPF 24 Calypso Berry Beat; Seborrheic Purifying; Secret Key Natural Cc Cushion Spf50 Plus / 01 Light Cc; Secret Key Natural Cc Cushion Spf50 Plus / 02 Natural Cc; Secret Key Tattoo Cover Cushion Spf50 Plus (21 Light Beige); Secret Key Tattoo Cover Cushion Spf50 Plus (23 Natural Beige); Secret Key Thanakha Aqua SunLotion SPF35 PA PLUS PLUS PLUS; Securewhite Cream SPF 30; Sei Bella Age-Defying Liquid Foundation Almond; Sei Bella Age-Defying Liquid Foundation Beige; Sei Bella Age-Defying Liquid Foundation Cashmere; Sei Bella Age-Defying Liquid Foundation Chestnut; Sei Bella Age-Defying Liquid Foundation Classic Beige; Sei Bella Age-Defying Liquid Foundation Espresso; Sei Bella Age-Defying Liquid Foundation Fawn; Sei Bella Age-Defying Liquid Foundation Golden; Sei Bella Age-Defying Liquid Foundation Ivory; Sei Bella Age-Defying Liquid Foundation Natural; Sei Bella Age-Defying Liquid Foundation Porcelain; Sei Bella Age-Defying Liquid Foundation Sand; Sei Bella Age-Defying Liquid Foundation Toffee; Sei Bella Tinted BB Moisturizing Creme Broadspectrum SPF 20 Beige 300 N; Sei Bella Tinted BB Moisturizing Creme Broadspectrum SPF 20 Beige 320 W; Sei Bella Tinted BB Moisturizing Creme Broadspectrum SPF 20 Beige 340 N; Sei Bella Tinted BB Moisturizing Creme Broadspectrum SPF 20 Blush 140 C; Sei Bella Tinted BB Moisturizing Creme Broadspectrum SPF 20 Blush 160 N; Sei Bella Tinted BB Moisturizing Creme Broadspectrum SPF 20 Blush 200 W; Sei Bella Tinted BB Moisturizing Creme Broadspectrum SPF 20 Blush 220 C; Sei Bella Tinted BB Moisturizing Creme Broadspectrum SPF 20 Deep 560 C; Sei Bella Tinted BB Moisturizing Creme Broadspectrum SPF 20 Tan 440 C; Sei Bella Tinted BB Moisturizing Creme Broadspectrum SPF 20 Tan 500 W; Select Brand Sunscreen; Select SPF 15 Foundation; Select SPF 15 Moistureblend Foundation; Self Defense Color Corrective Moisturiz. Lot; Self Defense Protective Moisturizing Lot-ntd; Self Defense Protective Moisturizing Lot-nto; Self Defining Sheer Foundation SPF 15; Self Tanner; Sensai Fluid Finish Ff202; Sense Daytime Protective Emulsion Sunscreen SPF 15; Sense Matte SPF 15; Seoyoon Hanbang Ja An Cover BB Cream; Sephora 8hr Mattifying Moisturizer Sunscreen Broad Spectrum SPF 20; Sephora Super Lisseur Rides Age Defy; Sephora Super Lisseur Rides SPF 15 Age Defy Moisture; Serena Williams Lip Balmer SPF 15; Sergio Garcia's Mint Lip Balmer SPF 15; Series 2000 Ultra Hydration Moisturizing Complex; Serious Shade Sunblock SPF 15; Serious Skincare Daytech 30; Serious Skincare Serious C3 Plasma Bio Technology C Vitamin C Ester Protective Daytime Broad Spectrum Moisturizer SPF 30; Serious Skincare Serious-C3 Plasma Tm Bio Technology C Vitamin C Ester Protective Daytime Broad Spectrum Moisturizer SPF 30; Shade Spray; Shaklee Sunscreen Gel Spf30; Shea Butter Protective SPF 20; Sheer Broad Spectrum SPF 30; Sheer Broad Spectrum SPF 45; Sheer Cover Nourishing Moisturizer SPF 15; Sheer Coverage Foundation SPF 15; Sheer Cream Lipstick Broad Spectrum SPF 15; Sheer Defense Tinted Moisturizer Broad Spectrum SPF 15 L10; Sheer Defense Tinted Moisturizer Broad Spectrum SPF 15 L20; Sheer Defense Tinted Moisturizer Broad Spectrum SPF 15 M50; Sheer Defense Tinted Moisturizer Broad Spectrum SPF 15 M50 Merle Norman; Sheer Defense Tinted Moisturizer Broad Spectrum SPF 15 MD 70 Merle Norman; Sheer Defense Tinted Moisturizer Broad Spectrum SPF 15 Ml30; Sheer Defense Tinted Moisturizer Broad Spectrum SPF 15 Ml40; Sheer Defense Tinted Moisturizer SPF 15 L10 Merle Norman; Sheer Defense Tinted Moisturizer SPF 15 ML 30 Merle Norman; Sheer Defense Tinted Moisturizer SPF 15 ML 40 Merle Norman; Sheer Defense Tinted Moisturizer SPF15 L20 Merle Norman; Sheer Focus Tinted Moisturizer; Sheer Focus Tinted Moisturizer With Uva/uvb SPF 15; Sheer Genius Liquid Foundation - Extra Dark Look; Sheer Genius Liquid Foundation - Extra Light Look; Sheer Genius Liquid Foundation - Light Look; Sheer Genius Liquid Foundation - Medium Dark Look; Sheer Genius Liquid Foundation - Medium Look; Sheer Genius Liquid Foundation Dark Look; Sheer Lustre Day Moisture Broad Spectrum SPF 15 Pa+++; Sheer Moisture; Sheer Protection Formula; Sheer SPF 30 Oil Free Well at Walgreens; Sheer Sensations Lip Colour Spf15; Sheer Tint Make-UP With Botanical Moisturisation; Sheer Tint Moisture - Dark; Sheer Tint Moisture - Light; Sheer Tint Moisture - Medium; Sheer Tint Redness Relief SPF 15; Sheer Tint SPF20 - Dark; Sheer Tint SPF20 - Light; Sheer Tint SPF20 - Medium; Sheer Voltage Lip Colour With Sunscreen SPF 15; Sheersatin Lip Sheen Lipstick SPF 15; Shelter; Shelter Tinted; Shimmer Make Up-foundation Stick SPF 8; Shimmer Make Up-light Diffusing Make Up SPF 8; Shimmery Sun; Shine On Lip Sunscreen Broad Spectrum SPF 50; Shiseido Benefiance Day. Protective Emulsion; Shiseido Benefiance Daytime Protective Cream; Shiseido Benefiance Daytime Protective Cream N Spf15; Shiseido Benefiance Daytime Protective Emulsion N SPF 15; Shiseido Benefiance Nutriperfect Day; Shiseido Benefiance Nutriperfect Day Cream SPF 15; Shiseido Benefiance Wrinkleresist24 Day; Shiseido Benefiance Wrinkleresist24 Protective Hand Revitalizer; Shiseido Brilliant Bronze Self-tanning Cream SPF 18; Shiseido Elixir NaT.F. Comp S.s RF.pk 10; Shiseido Elixir Nat. Finish Comp.ssrf Am10; Shiseido Elixir Nat.fin. Compact Ss.rf. Oc30; Shiseido Elx Nat.fin.compact Ss.rf.oc20; Shiseido Extra Smooth Sun Protection Cream SPF 38; Shiseido Extra Smooth Sun Protection Lotion SPF 34; Shiseido Extra Smooth Sun Protection N; Shiseido Future Lx Universal Defense; Shiseido Future Solution LX Total Protective; Shiseido Future Solution LX Total Protective E; Shiseido Future Solution Lx Daytime Protective; Shiseido Future Solution Lx Total Protective; Shiseido Future Solution Lx Total Protective Cream; Shiseido Future Solution Lx Total Protective Emulsion; Shiseido Future Solution Lx Total Radiance Foundation B20; Shiseido Future Solution Lx Total Radiance Foundation B40; Shiseido Future Solution Lx Total Radiance Foundation B60; Shiseido Future Solution Lx Total Radiance Foundation I00; Shiseido Future Solution Lx Total Radiance Foundation I20; Shiseido Future Solution Lx Total Radiance Foundation I40; Shiseido Future Solution Lx Total Radiance Foundation I60; Shiseido Future Solution Lx Total Radiance Foundation O00; Shiseido Future Solution Lx Total Radiance Foundation O20; Shiseido Future Solution Lx Total Radiance Foundation O40; Shiseido Future Solution Lx Total Radiance Foundation O60; Shiseido Glow Enhancing Primer; Shiseido Ibuki Protective Moisturizer; Shiseido Makeup Refining Makeup Primer; Shiseido Perfect Hydrating Bb Dark; Shiseido Perfect Hydrating Bb Light; Shiseido Perfect Hydrating Bb Medium; Shiseido Perfect Refining Foundation B00; Shiseido Perfect Refining Foundation B100; Shiseido Perfect Refining Foundation B20; Shiseido Perfect Refining Foundation B40; Shiseido Perfect Refining Foundation B60; Shiseido Perfect Refining Foundation D10; Shiseido Perfect Refining Foundation D20; Shiseido Perfect Refining Foundation D30; Shiseido Perfect Refining Foundation I00; Shiseido Perfect Refining Foundation I100; Shiseido Perfect Refining Foundation I20; Shiseido Perfect Refining Foundation I40; Shiseido Perfect Refining Foundation I60; Shiseido Perfect Refining Foundation O00; Shiseido Perfect Refining Foundation O20; Shiseido Perfect Refining Foundation O40; Shiseido Perfect Refining Foundation O60; Shiseido Perfect Refining Foundation O80; Shiseido Pre-makeup Cream; Shiseido Protective Lip Conditioner; Shiseido Pureness Matifying Compact Oil-free (refill) 10; Shiseido Pureness Matifying Compact Oil-free (refill) 20; Shiseido Pureness Matifying Compact Oil-free (refill) 30; Shiseido Pureness Matifying Compact Oil-free (refill) 40; Shiseido Pureness Matifying Compact Oil-free (refill) 50; Shiseido Pureness Matifying Compact Oil-free (refill) 60; Shiseido Radiant Lifting Foundation B00; Shiseido Radiant Lifting Foundation B100; Shiseido Radiant Lifting Foundation B20; Shiseido Radiant Lifting Foundation B40; Shiseido Radiant Lifting Foundation B60; Shiseido Radiant Lifting Foundation Bf40; Shiseido Radiant Lifting Foundation D10; Shiseido Radiant Lifting Foundation D20; Shiseido Radiant Lifting Foundation D30; Shiseido Radiant Lifting Foundation I00; Shiseido Radiant Lifting Foundation I100; Shiseido Radiant Lifting Foundation I20; Shiseido Radiant Lifting Foundation I40; Shiseido Radiant Lifting Foundation I60; Shiseido Radiant Lifting Foundation O00; Shiseido Radiant Lifting Foundation O20; Shiseido Radiant Lifting Foundation O40; Shiseido Radiant Lifting Foundation O60; Shiseido Radiant Lifting Foundation O80; Shiseido Radiant Lifting Foundation Wb40; Shiseido Radiant Lifting Foundation Wb60; Shiseido Refining Makeup Primer; Shiseido Refreshing Sun Protection; Shiseido Sheer Matifying Compact (refill) B00; Shiseido Sheer Matifying Compact (refill) B100; Shiseido Sheer Matifying Compact (refill) B20; Shiseido Sheer Matifying Compact (refill) B40; Shiseido Sheer Matifying Compact (refill) B60; Shiseido Sheer Matifying Compact (refill) D10; Shiseido Sheer Matifying Compact (refill) D20; Shiseido Sheer Matifying Compact (refill) D30; Shiseido Sheer Matifying Compact (refill) I00; Shiseido Sheer Matifying Compact (refill) I100; Shiseido Sheer Matifying Compact (refill) I20; Shiseido Sheer Matifying Compact (refill) I40; Shiseido Sheer Matifying Compact (refill) I60; Shiseido Sheer Matifying Compact (refill) O00; Shiseido Sheer Matifying Compact (refill) O20; Shiseido Sheer Matifying Compact (refill) O40; Shiseido Sheer Matifying Compact (refill) O60; Shiseido Sheer Matifying Compact (refill) O80; Shiseido Sheer Matifying Compact (refill) Wb40; Shiseido Sheer Matifying Compact (refill) Wb60; Shiseido Sheer and Perfect Compact (refill) B00; Shiseido Sheer and Perfect Compact (refill) B100; Shiseido Sheer and Perfect Compact (refill) B20; Shiseido Sheer and Perfect Compact (refill) B40; Shiseido Sheer and Perfect Compact (refill) B60; Shiseido Sheer and Perfect Compact (refill) D10; Shiseido Sheer and Perfect Compact (refill) D20; Shiseido Sheer and Perfect Compact (refill) D30; Shiseido Sheer and Perfect Compact (refill) I00; Shiseido Sheer and Perfect Compact (refill) I100; Shiseido Sheer and Perfect Compact (refill) I20; Shiseido Sheer and Perfect Compact (refill) I40; Shiseido Sheer and Perfect Compact (refill) I60; Shiseido Sheer and Perfect Compact (refill) O00; Shiseido Sheer and Perfect Compact (refill) O20; Shiseido Sheer and Perfect Compact (refill) O40; Shiseido Sheer and Perfect Compact (refill) O60; Shiseido Sheer and Perfect Compact (refill) O80; Shiseido Sheer and Perfect Foundation B00; Shiseido Sheer and Perfect Foundation B100; Shiseido Sheer and Perfect Foundation B20; Shiseido Sheer and Perfect Foundation B40; Shiseido Sheer and Perfect Foundation B60; Shiseido Sheer and Perfect Foundation D10; Shiseido Sheer and Perfect Foundation D20; Shiseido Sheer and Perfect Foundation D30; Shiseido Sheer and Perfect Foundation I00; Shiseido Sheer and Perfect Foundation I100; Shiseido Sheer and Perfect Foundation I20; Shiseido Sheer and Perfect Foundation I40; Shiseido Sheer and Perfect Foundation I60; Shiseido Sheer and Perfect Foundation O00; Shiseido Sheer and Perfect Foundation O20; Shiseido Sheer and Perfect Foundation O40; Shiseido Sheer and Perfect Foundation O60; Shiseido Sheer and Perfect Foundation O80; Shiseido Sports Bb Dark; Shiseido Sports Bb Light; Shiseido Sports Bb Medium; Shiseido Sun Block Compact Sb 1 - Pwr; Shiseido Sun Block Compact Sb1; Shiseido Sun Block Crm SPF 19; Shiseido Sun Block Face Cream; Shiseido Sun Block Lip Treatment; Shiseido Sun Block Stick; Shiseido Sun Protection; Shiseido Sun Protection Compact Foundation (refill) Sp10; Shiseido Sun Protection Compact Foundation (refill) Sp20; Shiseido Sun Protection Compact Foundation (refill) Sp30; Shiseido Sun Protection Compact Foundation (refill) Sp40; Shiseido Sun Protection Compact Foundation (refill) Sp50; Shiseido Sun Protection Compact Foundation (refill) Sp60; Shiseido Sun Protection Compact Foundation (refill) Sp70; Shiseido Sun Protection Compact Foundation SPF 35; Shiseido Sun Protection Emulsion SPF 8; Shiseido Sun Protection Eye; Shiseido Sun Protection Eye Cream SPF 32; Shiseido Sun Protection Foundation Beige; Shiseido Sun Protection Foundation Ochre; Shiseido Sun Protection Foundation Translucent; Shiseido Sun Protection Lip Treatment; Shiseido Sun Protection Lip Treatment SPF 36; Shiseido Sun Protection Lotion SPF 19; Shiseido Sun Protection Stick Foundation (translucent) SPF 36; Shiseido Sun Protection Stick Foundation SPF 36; Shiseido Suncare Extra Smooth; Shiseido Suncare Ultimate; Shiseido Synchro Skin Glow Luminizing Fluid Foundation Golden 2; Shiseido Synchro Skin Glow Luminizing Fluid Foundation Golden 3; Shiseido Synchro Skin Glow Luminizing Fluid Foundation Golden 4; Shiseido Synchro Skin Glow Luminizing Fluid Foundation Golden 5; Shiseido Synchro Skin Glow Luminizing Fluid Foundation Neutral 1; Shiseido Synchro Skin Glow Luminizing Fluid Foundation Neutral 2; Shiseido Synchro Skin Glow Luminizing Fluid Foundation Neutral 3; Shiseido Synchro Skin Glow Luminizing Fluid Foundation Neutral 4; Shiseido Synchro Skin Glow Luminizing Fluid Foundation Neutral 5; Shiseido Synchro Skin Glow Luminizing Fluid Foundation Rose 2; Shiseido Synchro Skin Glow Luminizing Fluid Foundation Rose 3; Shiseido Synchro Skin Glow Luminizing Fluid Foundation Rose 4; Shiseido Synchro Skin Glow Luminizing Fluid Foundation Rose 5; Shiseido Synchro Skin Lasting Foundation Golden 2; Shiseido Synchro Skin Lasting Foundation Golden 3; Shiseido Synchro Skin Lasting Foundation Golden 4; Shiseido Synchro Skin Lasting Foundation Golden 5; Shiseido Synchro Skin Lasting Foundation Neutral 1; Shiseido Synchro Skin Lasting Foundation Neutral 2; Shiseido Synchro Skin Lasting Foundation Neutral 3; Shiseido Synchro Skin Lasting Foundation Neutral 4; Shiseido Synchro Skin Lasting Foundation Rose 2; Shiseido Synchro Skin Lasting Foundation Rose 3; Shiseido Synchro Skin Lasting Foundation Rose 4; Shiseido Tanning Compact (bronze) SPF 4; Shiseido Tanning Compact (natural) SPF 4; Shiseido Tanning Emulsion SPF 4; Shiseido Tanning Face Crm SPF 4; Shiseido The Makeup Lifting Foundation B20; Shiseido The Makeup Lifting Foundation B40; Shiseido The Makeup Lifting Foundation B60; Shiseido The Makeup Lifting Foundation I00; Shiseido The Makeup Lifting Foundation I20; Shiseido The Makeup Lifting Foundation I40; Shiseido The Makeup Lifting Foundation I60; Shiseido The Makeup Lifting Foundation O20; Shiseido The Makeup Lifting Foundation O40; Shiseido The Makeup Lifting Foundation O60; Shiseido The Makeup Lifting Foundation O80; Shiseido The Makeup Sheer Matifying Compact (refill) B00; Shiseido The Makeup Sheer Matifying Compact (refill) B100; Shiseido The Makeup Sheer Matifying Compact (refill) I00; Shiseido The Makeup Sheer Matifying Compact (refill) O00; Shiseido The Skincare Day Moisture Protection; Shiseido The Skincare Day Moisture Protection Enriched; Shiseido The Skincare Day Moisture Protection Enriched SPF 15; Shiseido The Skincare Day Moisture Protection SPF 15; Shiseido The Skincare Protective Lip Conditioner; Shiseido The Skincare Tinted Moisture Protection 1 Light; Shiseido The Skincare Tinted Moisture Protection 2 Medium; Shiseido The Skincare Tinted Moisture Protection 3 Medium Deep; Shiseido The Skincare Tinted Moisture Protection 4 Deep; Shiseido Translucent Sun Block Stick; Shiseido Ultimate Sun Protection; Shiseido Ultimate Sun Protection Plus; Shiseido Ultra Light Sun Block Lotion SPF 30; Shiseido Ultra Sun Block Lotion SPF 50; Shiseido Ultra Sun Protection Cream SPF 50; Shiseido Ultra Sun Protection Lotion SPF 50; Shiseido Urban Environment Oil-free Uv Protector; Shiseido Urban Environment Tinted Uv Protector 1; Shiseido Urban Environment Tinted Uv Protector 2; Shiseido Urban Environment Tinted Uv Protector 3; Shiseido Urban Environment Uv Protection; Shiseido Uv Protective Compact (refill) Dark Beige; Shiseido Uv Protective Compact (refill) Dark Ivory; Shiseido Uv Protective Compact (refill) Fair Ivory; Shiseido Uv Protective Compact (refill) Light Beige; Shiseido Uv Protective Compact (refill) Light Ivory; Shiseido Uv Protective Compact (refill) Light Ochre; Shiseido Uv Protective Compact (refill) Medium Beige; Shiseido Uv Protective Compact (refill) Medium Ivory; Shiseido Uv Protective Compact (refill) Medium Ochre; Shiseido Uv Protective Foundation Beige; Shiseido Uv Protective Foundation Dark Beige; Shiseido Uv Protective Foundation Dark Ivory; Shiseido Uv Protective Foundation Fair Ivory; Shiseido Uv Protective Foundation Fair Ochre; Shiseido Uv Protective Foundation Light Beige; Shiseido Uv Protective Foundation Light Ivory; Shiseido Uv Protective Foundation Light Ochre; Shiseido Uv Protective Foundation Medium Beige; Shiseido Uv Protective Foundation Medium Ivory; Shiseido Uv Protective Foundation Ochre; Shiseido Vital-perfection Day Prot. Moist.; Shiseido Vital-perfection Prot. Lip Cond.; Shiseido Waso Color-smart Day Moisturizer; Shiseido White Lucent; Shiseido White Lucent All Day Brightener; Shiseido White Lucent All Day Brightener N; Shiseido White Lucent Brightening Protective Moisturizer N; Shiseido White Lucent Brightening Protective W; Shiseido White Lucent Brightening Spot-control Base Uv Green; Shiseido White Lucent Brightening Spot-control Base Uv Ivory; Shiseido White Lucent Brightening Spot-control Base Uv Pink; Shiseido White Lucent Brightening Spot-control Foundation (refill) Bf20; Shiseido White Lucent Brightening Spot-control Foundation (refill) I00; Shiseido White Lucent Brightening Spot-control Foundation (refill) O00; Shiseido White Lucent Brightening Spot-control Foundation (refill) O20; Shiseido White Lucent Brightening Spot-control Foundation (refill) O40; Shiseido White Lucent Brightening Spot-control Foundation (refill) O60; Shiseido White Lucent Onmakeup Spot Correcting Serum Medium; Shiseido White Lucent Onmakeup Spot Correcting Serum Natural; Shiseido White Lucent Onmakeup Spot Correcting Serum Natural Light; Shiseido White Lucent Protective Moisturizer SPF 16; Shiseiso Elx.nat.fin. Compact Ss.rf. Oc10; ShopKo Absolute Daily Moisturizer SPF15 Sensitive Skin; ShopKo Absolute Daily Moisturizing Broad Spectrum SPF15 Sunscreen; Shopko Moisture SPF 15 Lip Balm; Shu Uemura Face Architect Glow Enhancing Foundation SPF 26; Sienna Always Color Stay-on Makeup Broad Spectrum SPF 15 Jafra; Siero Co Aqua Cushion Foundation 13 Light Beige; Siero Co Aqua Cushion Foundation 21 Natural Beige; Siero Co Aqua Cushion Foundation 23 Rosy Beige; Siero Double Co Aqua Cc Cushion 13 Light Beige; Siero Double Co Aqua Cc Cushion 21 Natural Beige; Siero Double Co Aqua Cc Cushion 23 Rosy Beige; Siero Tyrian Red Cushion 13 Light Beige; Siero Tyrian Red Cushion 21 Natural Beige; Siero Tyrian Red Cushion 23 Rosy Beige; Signature Face/Clear High Performance Sunscreen Broad Spectrum SPF 30; Signature Sunscreen Broad Spectrum SPF 25 Malibu Heat; Silk and Shine; Silkies Enriche Ageless Moisturizer; Silky Finish Fluid; Silky and Clear Sunscreen; Simply Basic Moisturizing Lotion SPF 15; Simply Beige Always Color Stay-On Makeup SPF 10; Simply Beige Expert Finish Makeup Broad Spectrum SPF 25 Merle Norman; Simply Beige Perfecting makeup SPF 25 Merle Norman; Sirface Hydrating Lotion With SPF 15; Sirface Sun Protector SPF 30; Sirot Daytime Hand Perfection Transformative Glass Technology Moisturizing Sunscreen Broad Spectrum SPF 20; Sirot Hand and Body Trio Transformative glass Technology Complete Age Resistance Day and Night; Sirot complete Hand Care Collection Transformative Glass Technology Hydrate Restore Protect; Skin Activator Day SPF 15; Skin Activator Lip Refiner SPF 15; Skin Activator Sunscreen Day Lotion Broad Spectrum SPF 15; Skin Balancing Makeup Broad Spectrum SPF 20 Jafra; Skin Brightening SPF 50 Pa; Skin Brightening Spf50; Skin Caviar Concealer Foundation SPF 15 - Porcelaine Blush; Skin Caviar Foundation SPF 15; Skin Caviar Foundation Sunscreen SPF 15 - Amber Beige; Skin Caviar Foundation Sunscreen SPF 15 - Buff; Skin Caviar Foundation Sunscreen SPF 15 - Caramel Beige; Skin Caviar Foundation Sunscreen SPF 15 - Creme Peche; Skin Caviar Foundation Sunscreen SPF 15 - Golden Beige; Skin Caviar Foundation Sunscreen SPF 15 - Honey Beige; Skin Caviar Foundation Sunscreen SPF 15 - Mocha; Skin Caviar Foundation Sunscreen SPF 15 - Peche; Skin Caviar Foundation Sunscreen SPF 15 - Petal; Skin Caviar Foundation Sunscreen SPF 15 - Porcelaine Blush; Skin Caviar Foundation Sunscreen SPF 15 - Pure Ivory; Skin Caviar Foundation Sunscreen SPF 15 - Soft Ivory; Skin Caviar Foundation Sunscreen SPF 15 - Soleil Beige; Skin Caviar Foundation Sunscreen SPF 15 - Soleil Peche; Skin Caviar Foundation Sunscreen SPF 15 - Warm Beige; Skin Caviar Foundation Sunscreen SPF 15 - Warm Ivory; Skin Caviar Foundation Sunscreen SPF 15 -Satin Nude; Skin Caviar Foundation Sunscreen SPF 15 -Tender Ivory; Skin Caviar Foundation Sunscreen SPF 15 -Warm Linen; Skin Clarifying Intensive Revitalizing Care SPF 15; Skin Corrective BB Cream Broad Spectrum SPF15 Sunscreen; Skin Corrective Innovative Skin Perfector BB Broad Spectrum SPF15 Sunscreen Light Medium; Skin Crave spf15 lip balm; Skin Crave spf30 sunscreen; Skin Defense Concealer Broad Spectrum SPF 15 Jafra Cosmetics; Skin Defense Makeup SPF 15; Skin Defense Makeup SPF-15; Skin Enhancing Compact Foundation SPF 18; Skin Firm Lipoamino hydrator SPF 15 Molton Brown; Skin Foundation Cushion Compact Broad Spectrum SPF 35; Skin Foundation Mineral Makeup SPF 15; Skin Long-wear Weightless Foundation Broad Spectrum SPF 15; Skin Management Conditioner; Skin Management Oil Controller; Skin Protector Sun Block Crm; Skin Renew Radiance Moisture Lotion SPF 15; Skin Renewal Complex SPF 20; Skin So Soft Bug Guard Plus IR3535 Cool N Fabulous Disappearing Color Insect Repellent Sunscreen; Skin So Soft Bug Guard Plus IR3535 Expedition Insect Repellent Sunscreen; Skin So Soft Bug Guard Plus IR3535 Gentle Breeze Insect Repellent Sunscreen; Skin So Soft Firm and Restore Age Defying Corrective Neck and Chest; Skin So Soft Firm and Restore Neck and Chest Treatment; Skin So Soft Satin Glow Ultimate Body Moisturizing Lotion SPF 15; Skin Soothing Mineral Sunscreen Broad Spectrum SPF 40 Supergoop; Skin Tint FX; SkinCeuticals Daily Sun Defense Broad Spectrum SPF 20 Sunscreen; SkinCeuticals Ultimate UV Defense Broad Spectrum SPF 30 Sunscreen; SkinMedica Environmental Defense Sunscreen SPF 50; SkinMedica TNS Ultimate Daily Moisturizer Sunscreen SPF 20; SkinProtect SPF 50 SHEER ROLLER SUNSCREEN; SkinTx Daily Defense SPF 45; SkinTx Sunscreen SPF 30; SkinTx UV Pro Broad Spectrum SPF30; SkinTx UV Pro Broad Spectrum SPF45; Skinborn Day Cream SPF 30 - for Dry Skin; Skinborn Day Lotion SPF 30 - for Oily/combination Skin; Skinborn Sunscreen Lotion SPF 30 - for Dry Skin; Skincare LdeL Retinol Day Broad Spectrum SPF 20; Skinceuticals Daily Sun Defense SPF 20; Skinceuticals Sport Uv Defense SPF 45; Skinceuticals Uv Defense SPF 30; Skinfood Aloe Sun Bb; Skinfood Aloe Sun Bb 01; Skinfood Aloe Sun Bb 02; Skinfood Aloe Watery Sun Waterproof; Skinfood Miracle Food 10 Solu Tion Sun Essence; Skinfood Peach Sake Pore Bb 01; Skinfood Peach Sake Pore Bb 02; Skinfood Royal Honey Good Sun; Skinfood Vita Water Drop Cc; Skinprint Ultra Sheer SPF 20; Skinsimple Quench Your Thirst Skin Moisture Lotion SPF 15; Skintect Plus; Skintint Fx; Skin·best C.C. Cream SPF 25; Slim Fit Moist SPF 50; Slim Fit SPF 50 Pa; Smartshield Sunscreen Lotion SPF 30; Smartshield Sunscreen SPF 30; Smarty Plants Cc Skin Complexion Corrector Broad Spectrum SPF 20; Smashbox Camera Ready 5 In 1 Beauty Balm SPF 35; Smashbox Camera Ready Bb Cream Eyes SPF 15; Smashbox Camera Ready Bb Cream SPF 35; Smashbox Camera Ready Bb Water SPF 30; Smashbox Camera Ready Cc Cream SPF 30 Dark Spot Correcting; Smashbox High Definition Healthy Fx Foundation SPF 15; Smashbox Liquid Halo Hd Foundation SPF 15 Oil-free; Smashbox Photo Finish SPF 15 Foundation Primer; Smile Deep SPF 12; Smile Satin SPF 12; Smile Shine SPF 12; Smooth Minerals Avon Lip Gloss Gloss Levres SPF 15 Fps 15; Smooth Minerals Lipstick Rouge A Levres SPF/fps 15; Smooth Mint Lip Balm; Smooth Result SPF 18; Snail Bb 01; Snail Bb 02; Snail Essential EX Wrinkle Sun; Snail Repair Blemish Balm; Snail Solu Tion Bb 02; Snail Solu Tion Bb 07 Sand Beige; Snail Therapy 50 Bb Spf30 Pa Plus Plus No1; Snail Therapy 50 Bb Spf30 Pa Plus Plus No2; Snow Skin Sunscreen Lip Balm; SnowSkin Sunscreen; SnowSkin Sunscreen Zinc; Soft & Lush; Soft Beige Always Color Stay-On Makeup SPF 10; Soft Beige Always color stay-on Makeup Broad Spectrum SPF 15 Jafra; Soft Bisque Expert Finish Makeup Broad Spectrum SPF 25 Merle Norman; Soft Bisque Perfecting Makeup SPF 25 Merle Norman; Soft Derm Intensive Defense 8 SPF; Soft Ivory Always color stay-on Makeup Broad Spectrum SPF 15 Jafra; Soft Lips Crystal Ice; Soft Lips SPF 17 Stk; Softlips Berry; Softlips Birthday Cake; Softlips Cherry; Softlips Chocolate Bunny; Softlips Coconut; Softlips Coconut Cream; Softlips Cube Apple; Softlips Cube Chocolate Mint; Softlips Cube Coconut Cream; Softlips Cube Cupcake; Softlips Cube Fresh Mint; Softlips Cube Passion Fruit; Softlips Cube Peach Mango; Softlips Cube Pomegranate Blueberry; Softlips Cube Salted Caramel; Softlips Cube Strawberry; Softlips Cube Strawberry Banana; Softlips Cube Vanilla Bean; Softlips Flavor Fusions Blackberry Lemonade; Softlips Flavor Fusions Chocolate Mint Gelato; Softlips Flavor Fusions Pomegranate Blueberry; Softlips Flavor Fusions Strawberry Banana; Softlips Flavour Fusions Lip Moisturizer; Softlips Intense Moisture Berry Mint; Softlips Intense Moisture Citrus Mint; Softlips Intense Moisture Double Mint; Softlips Jack Frosting; Softlips Jelly Bean; Softlips Lip Moisturizer; Softlips Luxe Coconut Milk; Softlips Luxe Shea Moisture; Softlips Marshmallow Ghost; Softlips Mint with a hint of vanilla; Softlips Peach Mango; Softlips Pearl; Softlips Peppermint; Softlips Praline Brownie; Softlips Raspberry; Softlips Salted Caramel; Softlips Strawberry; Softlips Sugar; Softlips Sugar Plum Berry; Softlips Sugar and Spice; Softlips Tinted; Softlips Ultra 30; Softlips Vanilla; Softlips Watermelon; Softlips Winter Mint; Soin Auto-bronzant Visage Bronzage Intense SPF 15; Soin Auto-bronzant Visage Bronzage Naturel SPF 15; Soin Bonne Mine Express SPF 12 - Azzaro Chrome; Soin Haute Protection / High Protection Care SPF 30; Soin Hydratant Anti-age Fps 20; Soin Hydratant Anti-rides Fps 15; Soin Solaire SPF 8-crm; Soin Soleil - Crm Top; Soin Teinte Auto-bronzant Haute Protection SPF 15; Soins Soleil CRème Teintée Anti-rides Age-defying Tinted Cream Faible/low Protection Uva/uvb Spf10; Soins Soleil CRème Visage Face Cream Haute/high Protection Uva/uvb SPF 30; Soins Soleil Lait Corps Body Lotion Moyenne/medium Protection Uva/uvb SPF 20; Soins Soleil-CRème Visage Et Corps/ Face and Body Cream Faible/low Protection Uva/uvb Spf10; Sol Mate BROAD SPECTRUM SPF 4; SolScents Clear Face Flower Blast Broad Spectrum spf 50; Solaire Peau Parfaite Sunscreen SPF 30; Solar Defender SPF 30; Solar Defense Booster SPF50; Solar Defense Wipes SPF 15; Solar Moisturizer SPF 30; Solar Protection Formula SPF 60 Tinted Concealer - (Beige) Sunscreen; Solar Protection Formula SPF 60 Tinted Concealer - (Blush) Sunscreen; Solar Protection Formula SPF 60 Tinted Concealer - (Honey) Sunscreen; Solar Protection Formula SPF 65 Sunscreen; Solar Screen SPF 12; Solar Sense Clear Sun Protection; Solar Sense Clear Zinc Body SPF 50; Solar Sense Clear Zinc Sport Body SPF 50; Solar Sense Clear Zinc Sunscreen Value Pack 50 Plus; Solar Sense Face & Lip Protection - SPF-30; Solar Sense Face & Lip Protection W/SPF 45; Solar Sense Face Sense - Spf30; Solar Sense Kids Protection - SPF-30; Solar Sense Outdoor Sports Protection - SPF-30; Solar Sense SPF 45 for Face, Nose and Lips; Solar Sense Sun Damage Restoration Body SPF 15; Solar Shield # 30; Solar Shield SPF 15  -  Solid; Solbar; Solbar Avo SPF35; Solbar Fifty SPF50; Solbar Pf15 Liquid; Solbar Pf50 Sunscreen Crm; Solbar Thirty SPF 30; Solbar Zinc SPF38; Soleil Ambre SPF 5; Soleil Broad Spectrum SPF 30 Sunscreen Body Creme; Soleil Broad Spectrum SPF-15; Soleil Broad Spectrum SPF-30; Soleil Broad Spectrum SPF-50; Soleil Bronzant - Gel Top; Soleil Bronzant SPF 12; Soleil D'uv - Liq Top 3%; Soleil De Peau; Soleil De Peau - Liq Top; Soleil Enfants-crm Top; Soleil Et Rides - Crm Top; Soleil Extreme - Crm Top; Soleil Filtrant SPF 25; Soleil Forte Multi; Soleil Haute Protection - Crm Top; Soleil Identité; Soleil Protection Moderee - Crm Top; Soleil Protexion Sun Lip Stick Velvet Moisture SPF 20; Soleil Protexion Velvet Moisture Quenching Cream Combination Skin; Soleil Protexion Velvet Moisture Quenching Cream Normal Skin; Soleil Protexion Velvet Moisture SPF 30; Soleil Protexion Velvet Moisture SPF 60; Soleil Satin - Eml Top; Soleil Smart Body Protection Moisturizer SPF 15; Soleil Suisse Cellular Anti-wrinkle Sun Cream SPF 30; Soleil Suisse Cellular Self Tan for The Body SPF 15; Soleil Suisse Cellular Self Tan for The Face SPF 15; Soleil Ultra Expert Sun Care SPF 40 Face and Body Lotion; Solutions A.M. Ageless Results Day Cream; Solutions A.M. Complete Balance Day Cream CRème De Jour; Solutions A.M. Total Radiance; Solutions A.M. Total Radiance Day Lotion; Solutions Ageless Results Day; Solutions Am Maximum Moisture Day Cream; Solutions Am Total Radiance Day Cream; Solutions Neck and Chest Perfector; Solutions Winter Enjoy The Day Cream Creme Nouveau Jour SPF/fps 15; Son and Park Air Chou Foundation 21; Son and Park Air Chou Foundation 23; Son and Park Skin Fit Foundation 21; Son and Park Skin Fit Foundation 23; Sonatural Pow Der4room Cover Fixing Cushion 21.5; Sonatural Pow Der4room Cover Fixing Cushion 23.5; Soorhyehan Onbit Two Way Cake 23; Sooryehan Dabityoon Jiyoon Two way cake 23; Sooryehan Hyo Fermented Sun Block; Sooryehan Jadan Sun Mild; Sooryehan Onbit Essence Foundation 21; Soothing Care; Soothing Day Cream SPF 15; Soothing Day SPF 15; Sothy's Autobronzant Fps 4; Sothy's Creme Haute Protection Fps 15; Sothy's Creme Solaire Active SPF 4; Sothy's Ecran Total Fps 25; Sothy's Lait Bronzant Hydratant Fps 8; Sothy's Spray Soleil Actif Fps 4; Sothys Ecran Zones Exposees SPF 30; Sothys Emulsion Protectrice SPF 12; Spa Pharma Anti-Aging Acocado Cream SPF 25 Listing; Spa Pharma BB Cream SPF 50; Spa Pharma Day Defense Moisturizing Cream; Spa Pharma Moisturizer Cream SPF 50; Spa Pharma Multi vitamin Cream SPF 25; Spa Pharma Olive Oil Moisturizing Cream; Spa Pharma Regenerating Pomegranate Cream; Spa Skilha Helioprot Ab SPF 40; Spa Sun - Sun Protection SPF 30 - Face and Body; Speak Out Citrus Lip Balm; Speak Out Vanilla Lip Balm; Spearmint Lip Balm; Spearmint SPF 15 Lip; Specific Beauty Daily Hydrating SPF 30; Specific Rides Bronzante - Crm; Spf20 Uva/uvb; Spf30 Sunscreen; Spf40 Uva/uvb; Splash 50 SPF Sunblock Stick; Splash Kids 45 SPF/fps Sunscreen Lotion écran Solaire; Sport 30 SPF Sunblock Spray; Sport 30 SPF/fps; Sport Dry Lotion SPF 15; Sport Lip Balm; Sport Lotion 50 SPF; Sport Lotion SPF 30; Sport Performance Spray Sunscreen Ecran Solaire En Vaporisateur SPF Fps 30; Sport Performance Spray Sunscreen Ecran Solaire En Vaporisateur SPF/fps 15; Sport Performance Spray Sunscreen/ecran Solaire En Vaporisateur SPF Fps 50; Sport Performance Sunscreen Stick/ecran Solaire En Batonnet SPF/fps 30; Sport SPF 30 Sunblock Lotion; Sport Sun Block Lotion SPF 15; Sport Sun Block Lotion SPF 30; Sport Sunblock; Sport Sunblock 30 SPF; Sport Sunscreen Gel SPF 30; Sport Sunscreen Lotion écran Solaire 30 SPF/fps; Sport Sunscreen SPF 30 Lotion; Sport Sunstick SPF 30 Sunscreen; Sport Ultra Block Lotion SPF 30; Sports Bb; Spray Auto-bronzant SPF 15; Spray Bronzant Protecteur SPF 10; Spray De Traitement Des Intolérances Solaires; Spray Des Intolerances Solaires; Spray Ecran Solaire; Spray Huile Solaire Bronzage Intense SPF 4; Spray Lotion Solaire Haute Protection SPF 15; Spray Pour Peaux Intolerantes Au Soleil; Spray Solaire Bronzage Securite Special Peaux A Tendance Grasse SPF 15; Spray Solaire Bronzage Tres Rapide Special Peaux Halees SPF 6; Spray Solaire Lotion Non Grasse Protection Moyenne Spécial Sports 15 SPF; Spray Soleil Intense SPF 4; Spray Sunscreen écran Solaire En Vaporisateur SPF Fps 30; Star Bronzer Natural Matte; Steblanc Water Cc Pact 21 Light Beige; Steblanc Water Cc Pact 23 Natural Beige; Stick Ecran Solaire Hydratant Spf19; Stick Ecran Total SPF 25; Stick Nutri Protecteur Protection Elevee; Stick Nutri-reparateur; Stick Solaire Haute Protection Special Zones Sensibles SPF 30; Stick Solaire Peaux Sensibles SPF 18; Stick Solaire Pour Zones Sensibles SPF 30; Stick Solaire Tres Haute Protection SPF 30; Stick Solaire Tres Haute Protection Special Zones Sensibles 30 SPF; Stila CC Color Correcting Broad-Spectrum SPF 20 (All Shades); Stila Clear Color SPF 8; Stila Color Correcting Broad Spectrum SPF 20 (All Shades); Stila Hydrating Primer Oil-Free SPF 30 (All Shades); Stila Petal Infusions Skin Visor SPF 50 Sunscreen; Stila SPF 30 Skin Visor Sunscreen; Stila Sheer Color SPF 15 Face Powder; Stila Sheer Color Tinted Moisturizer SPF 15; Stila Stay All Day 10-in-1 HD Beauty Balm Broad Spectrum SPF 30; Stila Stay All Day 10-in-1 HD Illuminating Beauty Balm Broad Spectrum SPF 30; Stokoderm Sun Protect 30 PURE; Stokoderm Sunprotect 30 Pure; Stokoderm UV 30; Strawberry Sunscreen Lip Moisturizer; StriVectin Advanced Retinol Day Moisturizer Broad Spectrum SPF30; StriVectin Clinical Corrector ADVANCED ANTI-AGING FACE TINT LIGHT; StriVectin Clinical Corrector ADVANCED ANTI-AGING FACE TINT MEDIUM; StriVectin Clinical Corrector ANTI-AGING LIP TINT PINK; StriVectin Clinical Corrector ANTI-AGING LIP TINT PLUM; Strivectin-AR Advanced Retinol Day Lotion SPF 30; Strivectin-CC Clinical Corrector Advanced Anti-aging Face Tint Broad-spectrum SPF 30; Strivectin-CC Clinical Corrector Anti-aging Lip Tint SPF 20; Studio Blend Cover Foundation Spf15; Studio Finish Concealer SPF 15; Studio Finish Concealer SPF 35; Studio Finish Matte Foundation SPF 8; Studio Finish Satin Foundation SPF 8; Studio Fix Fluid Broad Spectrum SPF 15 With Enriched Anti-oxidant Complex; Studio Fix Fluid SPF 15; Studio Fix Fluid SPF 15 Broad Spectrum; Studio Foundation SPF 15; Studio Moisture Fix Broad Spectrum SPF 15; Studio Moisture Fix SPF 15; Studio Moisture Tint SPF 15; Studio Sculpt SPF 15 Foundation; Stylo Sport SPF 15 Demi-coverage; Stylo Sport SPF 15 Full-coverage; Sublime Beauty Cream 01-clair/light; Sublime Beauty Cream 02-medium; Sublime Glow Face     (SPF 15 Fair); Sublime Glow Face     (SPF 15 Medium); Sudden Change Intensive Restoration Daily Moisturizer SPF 15; Sugar Bloom Lip Treatment Sunscreen SPF 15; Sugar Candy Lip Treatment Sunscreen SPF 15; Sugar Fig Tinted Lip Treatment Sunscreen SPF 15; Sugar Lip Treatment Sunscreen SPF 15; Sugar Nude Tinted Lip Treatment Sunscreen SPF 15; Sugar Poppy Lip Treatment Sunscreen SPF 15; Sugar Punch Lip Treatment Sunscreen SPF 15; Sugar Rose Extreme Tinted Lip Treatment Sunscreen SPF 15; Sugar Rose Lip Treatment Sunscreen SPF 15; Sugar Spice Lip Treatment Sunscreen SPF 15; Sugar Sport Treatment Sunscreen SPF 30; Sulwhasoo Age-veil Sun Cream SPF 30; Sulwhasoo Age-veil UV protection; Sulwhasoo Age-veil Uv Protection Cream; Sulwhasoo EVENFAIR SMOOTHING FOUNDATION SPF25 NO. 2 medium beige; Sulwhasoo EVENFAIR SMOOTHING FOUNDATION SPF25 NO. 3 MEDIUM OCHER; Sulwhasoo EVENFAIR SMOOTHING FOUNDATION SPF25 NO.2 MEDIUM BEIGE; Sulwhasoo EVENFAIR SMOOTHING FOUNDATION SPF25 NO.3 MEDIUM OCHER; Sulwhasoo EVENFAIR SMOOTHING MAKEUP BASE NO. 2; Sulwhasoo Evenfair Compact No.21; Sulwhasoo Evenfair Compact No.24; Sulwhasoo Evenfair Compact No.26; Sulwhasoo Evenfair Perfecting Cushion No.21; Sulwhasoo Evenfair Perfecting Cushion No.23; Sulwhasoo Evenfair Perfecting Cushion No.25; Sulwhasoo Lumitouch Base; Sulwhasoo Lumitouch Base Makeup SPF15, PA plus; Sulwhasoo Lumitouch Base SPF 15 No. 60 Light Green; Sulwhasoo Lumitouch Base SPF 15 No.40 Light Violet; Sulwhasoo Lumitouch Compact No.21 Natural Beige; Sulwhasoo Lumitouch Compact No.23 True Beige; Sulwhasoo Lumitouch Foundation; Sulwhasoo Lumitouch Foundation No. 21; Sulwhasoo Lumitouch Foundation No. 23; Sulwhasoo Lumitouch Foundation No. 25; Sulwhasoo Lumitouch Foundation No.21 Natural Beige; Sulwhasoo Lumitouch Foundation SPF 25 No 23. True Beige; Sulwhasoo Lumitouch Foundation SPF 25 No 25. Dark Beige; Sulwhasoo Lumitouch Foundation SPF 25 No.21 Natural Beige; Sulwhasoo Lumitouch Foundation SPF15, PA plus; Sulwhasoo Lumitouch Foundation SPF26, PA plus plus; Sulwhasoo Lumitouch Multi-Base No.1; Sulwhasoo Lumitouch Multi-Base No.2; Sulwhasoo Lumitouch Twincake SPF25, PA plus plus; Sulwhasoo PERFECTING CUSHION NO.11 PALE PINK; Sulwhasoo PERFECTING CUSHION NO.13 LIGHT PINK; Sulwhasoo PERFECTING CUSHION NO.21 MEDIUM PINK; Sulwhasoo PERFECTING CUSHION NO.23 MEDIUM BEIGE; Sulwhasoo PERFECTING CUSHION NO.25 DEEP BEIGE; Sulwhasoo PERFECTING CUSHION NO.33 DARK BEIGE; Sulwhasoo PERPECTING CUSHION BRIGHTENING NO.11 PALE PINK; Sulwhasoo PERPECTING CUSHION BRIGHTENING NO.13 LIGHT PINK; Sulwhasoo PERPECTING CUSHION BRIGHTENING NO.17 LIGHT BEIGE; Sulwhasoo PERPECTING CUSHION BRIGHTENING NO.21 MEDIUM PINK; Sulwhasoo PERPECTING CUSHION BRIGHTENING NO.23 MEDIUM BEIGE; Sulwhasoo PERPECTING CUSHION BRIGHTENING NO.25 DEEP BEIGE; Sulwhasoo PERPECTING CUSHION BRIGHTENING NO.33 DARK BEIGE; Sulwhasoo Perfecting Cushion; Sulwhasoo Perfecting Cushion Intense No.11; Sulwhasoo Perfecting Cushion Intense No.13; Sulwhasoo Perfecting Cushion Intense No.17; Sulwhasoo Perfecting Cushion Intense No.21; Sulwhasoo Perfecting Cushion Intense No.23; Sulwhasoo Perfecting Cushion Intense No.25; Sulwhasoo Perfecting Cushion Intense No.33; Sulwhasoo Perfecting Cushion No.21; Sulwhasoo Perfecting Cushion No.23; Sulwhasoo Perfecting Cushion No.25; Sulwhasoo SNOWISE BRIGHTENING SERUM BB; Sulwhasoo Snowise Brightening Bb Base No.1; Sulwhasoo Snowise Brightening Bb Base No.2; Sulwhasoo Snowise Foundation; Sulwhasoo evenfair smoothing makeup base NO. 1; SulwhasooSNOWISE BRIGHTENING SERUM BB; Sumadan Xlt; Sun + Avon Sport Refresh Technologie Derma Plus Technology Sunscreen Lotion SPF/fps 30; Sun + Avon Technologie Derma Plus Technology Sunscreen Spray; Sun 30 SPF Water Resistant Alba Botanica; Sun Barrier UV Aqua Gel Broad Spectrum SPF 12; Sun Barrier UV Aqua Sun Broad Spectrum SPF 50; Sun Barrier UV Milk Broad Spectrum SPF 50; Sun Barrier UV Protector Broad Spectrum SPF 50; Sun Barrier UV Shaking Broad Spectrum SPF 50; Sun Bathe Sunscreen; Sun Bathe Sunscreen SPF 20; Sun Beige Perfecting Makeup Broad Spectrum SPF 25 Merle Norman; Sun Block; Sun Block + SPF 15 - Crm; Sun Block + SPF 30 - Crm; Sun Block Lotion SPF 15; Sun Block SPF 15; Sun Block SPF 25; Sun Block SPF 30; Sun Block SPF 8; Sun Block Sprary; Sun Buffer Lipstick; Sun Bum Clear Zinc SPF50 Sunscreen; Sun Bum Premium Sunscreen Face Broad Spectrum SPF 30; Sun Bum SPF 30 Watermelon; Sun Bum SPF 70 Premium Moisturizing Sunscreen; Sun Bum Sunscreen Lip Balm Broad Spectrum SPF 30 Banana; Sun Bum Sunscreen Lip Balm Broad Spectrum SPF 30 Coconut; Sun Bum Sunscreen Lip Balm Broad Spectrum SPF 30 Key Lime; Sun Bum Sunscreen Lip Balm Broad Spectrum SPF 30 Mango; Sun Bum Sunscreen Lip Balm Broad Spectrum SPF 30 Pink Grapefruit; Sun Bum Sunscreen Lip Balm Broad Spectrum SPF 30 Pomegranate; Sun Care For Face; Sun Care for Body; Sun Defense Canyon Ranch; Sun Defense Cream; Sun Defense Lip Block SPF 15; Sun Defense SPF 30; Sun Defense Sunblock SPF 25 - Liquid; Sun Defense Sunscreen SPF 8  -  Liquid; Sun Defense UVscreen SPF 48; Sun Essential; Sun Expert; Sun Facial Sunscreen 20 SPF for Sensitive Skin Alba Botanica; Sun Fragrance-free Sunscreen 15 SPF Water Resistant Alba Botanica; Sun Kids Sunscreen 32 SPF; Sun Lix; Sun Lotion SPF 15; Sun Lotion SPF 8; Sun Management Extensive Protection Sunblock; Sun Management Intense Protection Sunblock SPF 20; Sun Management Lip Protection Sunblock SPF 15; Sun Management Sensible Protection Sunblock; Sun Of A Beach SPF 30; Sun Pacer Protective Sun Block Crm Spf30; Sun Pacer Protective Sun Screen Lot Spf15; Sun Pacer SPF 15; Sun Pacer SPF 30; Sun Pacer SPF 8; Sun Premium Face 50 SPF; Sun Project Light Sun Essence; Sun Project Shimmer Sun Essence; Sun Project Shimmer Sun Essence 15ml; Sun Project Water Sun Cream SPF50; Sun Protection Cream SPF 35; Sun Protection Creme SPF 30 PLUS Exel Clarifying Line; Sun Protection SPF 45; Sun Protection Spray SPF-30; Sun Protection Stick SPF 15; Sun Protective Day Cleanser Sunscreen; Sun Protective Day Moisturizer Sunscreen; Sun Radiance SPF 15 Crystal Gloss; Sun Screen; Sun Seekers Sun Blocking Lotion SPF 30 Lot; Sun Seekers Suntanning Lotion Spf4; Sun Seekers Tanning Lotion Spf8; Sun Shades; Sun Shades 15 Lip Balm Blueberry Cheesecake; Sun Shades 15 Lip Balm Cherry Candy Cane; Sun Shades 15 Lip Balm Cranberry Tangerine; Sun Shades 15 Lip Balm Lemon Gum Drop; Sun Shades Lip Balm Butter Rum; Sun Shades Lip Balm Caramel Toffee; Sun Shades Lip Balm Coconut Smoothie; Sun Shades Lip Balm Key Lime Pie; Sun Shades Lip Balm Mountain Mint; Sun Shades Lip Balm Peach Mango; Sun Shades Lip Balm Pina Colada; Sun Shades Lip Balm Pineapple Paradise; Sun Shades Lip Balm Pink Grapefruit; Sun Shades Lip Balm Pomegranate SPF 15; Sun Shades Lip Balm STropical Fruit Sorbet; Sun Shades Lip Balm Strawberry Daiquiri; Sun Shades Lip Balm Strawberry Tart; Sun Shades Lip Balm Sugar and Spice; Sun Shades Lip Balm Vanilla Bean; Sun Shades Lip Balm Watermelon Lemon; Sun Shades Sport - Lot; Sun Shades Waterproof Sunblock SPF 30; Sun Shield Broad Spectrum SPF 50 Matte Sunscreen; Sun Shield Crm; Sun Shield Day Lotion SPF 15; Sun Smackers - Stk Top; Sun Smackers Cool Cover Up; Sun Smackers Cool Face Coverup SPF 24; Sun Smart Levres Fps 15; Sun Sport Sunscreen 32 SPF; Sun Stick SPF 24; Sun Swipes SPF 15; Sun Tanning Lotion SPF 4 - 2.5%; Sun Therape Body SPF-35; Sun Therape Face SPF-35; Sun Therape Face and Body SPF-35; Sun Therape Pro Sport Face and Body SPF-35; Sun Therape Pro Sport SPF-35; Sun Therape Sport SPF-35; Sun Therapy - Suntan SPF 30; Sun Total Protector 30 broad spectrum SPF 30 daily protection; Sun Total Protector Color 30 Dark Tint; Sun Total Protector Color 30 Light Tint; Sun Trainer Creme De Soin Pour Soleil Intense; Sun Trainer Creme De Soin Pour Soleil Normal Ou Fort; Sun Trainer Lait De Soin Pour Soleil Intense; Sun Trainer Lait De Soin Pour Soleil Normal Ou Fort; Sun Ultimate Cream/crème SPF/fps 30; Sun Ultimate Spray SPF/fps 30; Sun Verbena Protective Body Protection SPF 15; Sun X Multi-Pack SPF 30 Thick; Sun and Ski Stick SPF 15; Sun and Snow Sport Lotion SPF 30; Sun and Snow Sport SPF 15; Sun and Snow Sport Spray SPF 30; Sun defense CanyonRanch; Sun-Defying Sunscreen Oil Broad Spectrum SPF 50 Supergoop; Sun-Kissed Lip Balm Lemon Lime SPF30; Sun-shades Lip Balm SPF 15 - Pina Colada Stk; Sun-shades Lip Balm SPF 15 - Vanilla Stk; Sun/soleil; SunBum SPF 30; SunBum SPF 50; SunScreen; SunScreen SPF 30; SunScreen SPF30; SunShades 15 Lip Balm Harvest Berry; SunZone Baby SPF 30 Sunscreen Broad Spectrum; SunZone Baby Sunscreen SPF-60 Broad Spectrum; SunZone Family SPF 30 Broad Spectrum; SunZone Family Sunscreen SPF-60 Broad Spectrum; SunZone Kids SPF 30 Sunscreen Broad Spectrum; SunZone SPF-60 Broad Spectrum; SunZone Sport SPF 30 Sunscreen Broad Spectrum; SunZone Sport Sunscreen SPF-60 Broad Spectrum; SunZone Sunscreen Family SPF 30 Broad Spectrum; SunZone Sunscreen Kids SPF 60 Broad Spectrum; SunZone Work Sunscreen SPF-60 Broad Spectrum; Sunbalance; Sunbar SPF 30; Sunbar SPF 48; Sunblock; Sunblock 45 SPF/fps; Sunblock Lot SPF 30; Sunblock Lot. Spf15; Sunblock Lotion 15 SPF; Sunblock Lotion 30 SPF; Sunblock Lotion SPF 15; Sunblock Premium Formula SPF 45; Sunblock SPF 15 Fragrance-free Spray; Sunblock SPF 15 Scented Spray; Sunblock for Body SPF 15; Sunblock for Face SPF 30; Sunbrellas Family Sunblock SPF 45; Sunbrellas Goodbye Bugs Block SPF 26; Sunbrellas Kids Sunblock SPF 45; Sunbrellas Sport Sunblock SPF 45; Sunbrero SPF 30 Lotion; Sunburn Protection Broad Spectrum SPF 20 Sunscreen; Suncare By Vaseline Baby Lotion Spf25; Suncare By Vaseline Gel SPF 15; Suncare By Vaseline Kids Lotion Spf25; Suncare By Vaseline Lotion SPF 15; Suncare By Vaseline Lotion SPF 25; Suncare By Vaseline Spray SPF 15; Suncare Defense SPF 15, Mineral Moisturizer; Suncare Defense SPF 20 Mineral Moisturizer Spray; Suncare Defense SPF 25 Mineral Moisturizer Face & Body; Suncare Defense SPF 30 Mineral Moisturizer; Suncare Defense SPF 8 Oil Face & Body; Suncreen Daily Defense Lather; Suncreen Lotion SPF 30; Suncures Ultra Hydrating Sunscreen SPF 20; Sundays High Protection Bronz Crm Spf8; Sundays Max Protec Sunscreen Crm Spf15+; Sundays Moderate Protec Bronz Gel Spf4; Sundays Sunscreen Cream SPF 30+; Sundays Very High Protection Face Block Stick; Sunfree Sunscreen; Sunfrog Ultra SPF 30 Lip Balm; Sungirl SPF 20; Sungirl SPF 30; Sunglow Foundation SPF 15; Sunglow Foundation SPF-15; Sunjammer SPF 15; Sunless Tanning Lotion SPF 15; Sunless Tanning SPF 15; Sunlogics SPF 8 Oil Free Tanning Mist; Sunlogics Sunscreen Lotion Broad Spectrum SPF 25 Water Resistant; Sunright 15 - Lot; Sunright 23 Face & Hands - Lot; Sunright 28 - Lot; Sunright 50 SPF 50; Sunright BodyBlock SPF15; Sunright Broad Spectrum SPF 30; Sunright Lip Balm SPF 15; Sunright SPF 15; Sunright SPF 30; Sunright Spray 13 - Asp Liq; Sunsation Stick Lip Balm SPF 15; Sunscreen; Sunscreen 30; Sunscreen 30 SPF; Sunscreen 30 SPF Continuous Spray; Sunscreen Beige Broad Spectrum Spf50+; Sunscreen Broad Spectrum SPF 50 Vi Aesthetics; Sunscreen Broad Spectrum SPF 50 Vitality Institute; Sunscreen Broad Spectrum Spf50+; Sunscreen Creme SPF 37 Exel; Sunscreen Day Broad Spectrum SPF 40 Supergoop; Sunscreen Day SPF 50 Supergoop; Sunscreen Face Cream SPF 4; Sunscreen Face SPF 28 Vertra Elemental Resistance; Sunscreen Face Stick Sun Bum Broad Spectrum SPF 30; Sunscreen Face and Body Broad Spectrum SPF 30; Sunscreen Family SPF 30; Sunscreen Family SPF 50+; Sunscreen Gel SPF 30; Sunscreen Kids SPF 50+; Sunscreen Lip Balm; Sunscreen Lip Balm Sun Bum SPF 30; Sunscreen Lotion 15 SPF; Sunscreen Lotion 30 SPF; Sunscreen Lotion 45 SPF; Sunscreen Lotion Ecran Solaire 15; Sunscreen Lotion Ecran Solaire 30; Sunscreen Lotion Face SPF 30; Sunscreen Lotion Family SPF 30; Sunscreen Lotion Kids SPF 30; Sunscreen Lotion Kids SPF 50+; Sunscreen Lotion SPF 15; Sunscreen Lotion SPF 25; Sunscreen Lotion SPF 30; Sunscreen Lotion SPF 39; Sunscreen Lotion SPF 45; Sunscreen Lotion SPF 8; Sunscreen Lotion Spf15; Sunscreen Lotion Spf30; Sunscreen Lotion Sport SPF 30; Sunscreen Lotion for Babies; Sunscreen Mango and Coconut; Sunscreen Mist Broad Spectrum SPF 30 Supergoop; Sunscreen Mist Broad Spectrum SPF 50 Supergoop; Sunscreen Moisturizer SPF 30; Sunscreen Oil SPF 2; Sunscreen SPF 12; Sunscreen SPF 15; Sunscreen SPF 24; Sunscreen SPF 25; Sunscreen SPF 28; Sunscreen SPF 30; Sunscreen SPF 45; Sunscreen SPF 50; Sunscreen SPF 50 Plus Broad Spectrum UVA UVB protection; Sunscreen SPF 6; Sunscreen SPF 70 Sun Bum; Sunscreen SPF-30; Sunscreen SPF30; Sunscreen Sport SPF 50+; Sunscreen Spray 30 SPF; Sunscreen Spray SPF 3; Sunscreen Spray SPF 30; Sunscreen Spray SPF 6; Sunscreen Spray SPF Fps 30; Sunscreen Spray for Babies; Sunscreen Stick; Sunscreen Stick With Moisturizing Aloe Vera; Sunscreen Wipe KGP; Sunscreen for Body SPF 30; Sunscreen with Aloe Vera SPF 30; Sunscreen with UV pearls Broad Spectrm SPF 20; SunscreenSPF 30 SPF 30; Sunsect Insect Repellent Sunscreen; Sunseekers Sun Blocking Stick SPF 15 Stk; Sunshield Liquid Makeup - Liq; Sunshield SPF-30; Sunsorb SPF30; Sunspots Sunscreen Lotion SPF 15; Sunspots Sunscreen Lotion SPF 30; Sunspray; Sunstick Broad Spectrum SPF 30 Supergoop; Sunstop 30 +; Sunstop SPF 15+ for Kids; Suntan Lotion; Suntints Liquid Lip Balm SPF 20; Suntone BROAD SPECTRUM SPF 4; Sunx SPF 30 Sunscreen Lotion; Sunx SPF 30 Sunscreen Towelette; Sunzone Family SPF 15 Broad Spectrum; Sunzone Family SPF 60 Broad Spectrum; Sunzone Family Sunscreen SPF 30 Broad Spectrum; Sunzone Kids SPF 60 Broad Spectrum; Sunzone Sunscreen Lotion écran Solaire Baby Bebe 15 SPF/fps; Sunzone Sunscreen Lotion écran Solaire Baby Bebe 60 SPF/fps; Sunzone Sunscreen Lotion écran Solaire Baby Bébé 45 SPF/fps; Sunzone Sunscreen Lotion écran Solaire Baby Bébé 50 SPF/fps; Sunzone Sunscreen Lotion écran Solaire Family Famille 15 SPF/fps; Sunzone Sunscreen Lotion écran Solaire Family Famille 45 SPF/fps; Sunzone Sunscreen Lotion écran Solaire Family Famille 50 SPF/fps; Sunzone Sunscreen Lotion écran Solaire Family Famille 60 SPF/fps; Sunzone Sunscreen Lotion écran Solaire Kids Enfants 15 SPF/fps; Sunzone Sunscreen Lotion écran Solaire Kids Enfants 50 SPF/fps; Sunzone Sunscreen Lotion écran Solaire Kids Enfants SPF 45; Sunzone Sunscreen Lotion écran Solaire Sport 15 SPF/fps; Sunzone Sunscreen Lotion écran Solaire Sport 60 SPF/fps; Sunzone Sunscreen Lotion écran Solaire Work Travail 15 SPF/fps; Sunzone Sunscreen Lotion écran Solaire Work Travail 60 SPF/fps; Sunzone Sunscreen Sport SPF 15 Broad Spectrum; Sunzone Sunscreen Sport SPF 60 Broad Spectrum; Super Aqua-serum Bb Hydra Beauty Balm With Sunscreen Broad Spectrum SPF 25 Light; Super Aqua-serum Bb Hydra Beauty Balm With Sunscreen Broad Spectrum SPF 25 Medium; Super BB All in One Cheek and Lip; Super CC Color Correction Care Primer Stick SPF 30; Super CC Color-Corection Care All Over Blur Stick; Super City Block SPF 40 Oil Free Daily Face Protector; Super Lysine Plus Coldstick; Super Lysine Plus Strawberry Lip Treatment; Super Lysine Plus Tangerine Lip Treatment; Super Origin Cc Spf25 Pa Plus Plus Brightening; Super Origin Cc Spf30 Pa Plus Plus Color Change; Super Origin Cc Spf30 Pa Plus Plus Tinted; Super Origin Collagen Bb; Super Origin Collagen Bb Sand Beige; Super Origin Collagen Bb Spf25 Pa Plus Plus; Super Origin Collagen Waterproof Bb; Super Origin Collagen Waterproof Bb Spf46 Pa Plus Plus Plus; Super Origin Cotton Finish Foundation 21 Light Beige; Super Origin Cotton Finish Foundation 23 Natural Beige; Super Origin Cushion Complete Control 21 Moist and Bright Skin; Super Origin Cushion Complete Control 23 Moist and Natural Skin; Super Plus Beblesh Balm Hot Pink SPF 25; Super Plus Beblesh Balm Triple Functions SPF50 Plus PA 3Plus (40g); Super Power Sunscreen Mousse SPF 50 Supergoop; Super Sheer Sunscreen Lotion SPF 50; Super Shock Liquid Lip Shine; Super Sparkle Screen Broad Spectrum 30 Sunkissed Gold Glitter Tangerine Scented; Super Sparkle Screen Broad Spectrum 30 Sunkissed Pink Glitter Strawberry Scented; SuperPlus Beblesh Balm Gold SPF25 PA 2Plus; SuperPlus Beblesh Balm SPF25 PA 2Plus; SuperPlus Beblesh Balm Triple Functions SPF25 PA 2Plus; Superlustrous Lip Balm; Supremacie NX Jour; Supreme Shield; Supreme Skinpia 10 Sun Block; Surf Bay Lip Balm; Surfers Skin Sunscreen; Surfers Skin Sunscreen Lip Balm; SurfersSkin Sunscreen Zinc; Surprotecteur Ecran Total - Crm; Susan Lucci Youthful Essence Daily Protection Moisturizer Sunscreen SPF 15; Susan Lucci Youthful Essence For Eyes Instant Smoothing Day Treatment SPF 15; Sweet Berry Moisturizing Sunscreen Lip Balm SPF 15; Sys; Systeme Anti-rides Bio Matifiant Jour Fps 15; T.T. Lip Guard Spf4; TECHNIblock ULTRA SUNSCREEN; TONYMOLY My Sunny Perfecting Sun Block; TOTAL DEFENSE REPAIR BROAD SPECTRUM SPF 34 Sunscreen; TOTAL DEFENSE REPAIR BROAD SPECTRUM SPF 34 Sunscreen (Tinted); TOTAL DEFENSE REPAIR BROAD SPECTRUM SPF 50 Sunscreen; TS CC Cream Beige; TS CC Cream Natural Beige; Tahitian Holiday Liquid Lip Balm Baume Liquide Pour Les Levres SPF/fps15; Tahitian Noni Lip Balm Berry SPF15; Tahitian Noni Lip Balm Pineapple SPF15; Tahitian Noni Original Lip Balm SPF15; Tahitian Noni Sunscreen; Tahitian Noni Sunscreen SPF 30; Tahitian Noni TePoema Element Shield SPF 20; Take A Deep Breath Cushion Foundation SPF 20 Shade xx; Take Cover Anti-aging Foundation Deep; Take Cover Anti-aging Foundation Fair; Take Cover Anti-aging Foundation Light; Take Cover Anti-aging Foundation Medium; Take Cover Anti-aging Foundation Medium Deep; Take Cover Anti-aging Foundation Medium Rich; Tan Expert Finish Makeup Broad Spectrum SPF 25 Merle Norman; Tan Express Dark Tanning Awesome Oil SPF 4; Tan Express Dark Tanning Blitz Spray Lotion Spf4; Tan Towel SPF 30 Bronzing Mist Broad Spectrum; Tan Towel SPF 30 Clear Broad Spectrum; Tawny Beige Always Color Stay-on Makeup Broad Spectrum SPF 15 Jafra; TeMana Tahiti Noni Brightening Facial Shield SPF50; Tea Blend Daily Moisturizer SPF 15 Jafra; Tea Blend Samples Jafra; Teint Compact Creme Universel - Spf15; Teint Diaphane SPF/fps 30; Teint Diorlift; Teint Diorlight; Teint Fluide Universel; Teint Fluide Universel- SPF 15; Teint Idole Fresh Wear; Teint Idole Ultra Wear; Teint Innocence - Teint Compact Creme Universel; Teint Innocence - Teint Fluide Frais Naturel Et Lumineux; Teint Lift Anti-rides Fps 20 SPF 20; Teint Lift Defense Spf6; Teint Lumière; Teint éclat Confort Autofocus SPF 15; Tender Moments SPF 45; Tendertone Lip Balm SPF 12; Tensolift; Terracotta Bronzing Mist With Sunscreen SPF 10 02 Medium; Terracotta Bronzing Mist With Sunscreen SPF 10 Light 01; Terracotta Joli Teint Beautifying Foundation With Sunscreen Sun-kissed, Healthy Glow Broad Spectrum SPF 20 Dark; Terracotta Joli Teint Beautifying Foundation With Sunscreen Sun-kissed, Healthy Glow Broad Spectrum SPF 20 Ebony; Terracotta Joli Teint Beautifying Foundation With Sunscreen Sun-kissed, Healthy Glow Broad Spectrum SPF 20 Light; Terracotta Joli Teint Beautifying Foundation With Sunscreen Sun-kissed, Healthy Glow Broad Spectrum SPF 20 Medium; Terracotta Joli Teint Beautifying Foundation With Sunscreen Sun-kissed, Healthy Glow Broad Spectrum SPF 20 Natural; Terrapin Outdoor Systems SPF 15 Lip Balm; Terrapin Outdoor Systems SPF 15 Sunscreen Lotion; Terrapin Outdoor Systems SPF 25 Spray On Sunscreen; Terrapin Outdoor Systems SPF 30 Sunscreen Lotion; Terrasport; The Art of Shaving Daily Sunscreen Broad Spectrum SPF 15; The Body Shop Pomegranate SPF 15; The Cellin EOP B.B Cream; The Cellin SC BB Cream SPF 25 PA; The Cellin Sun Screen Spf35 Pa Plus Plus; The Cover Classic Foundation SPF 24, No. N3; The Cover Classic Foundation SPF 24, No. O4; The Cover Classic Pro Foundation SPF 24 No. 2; The Cover Classic Pro Foundation SPF 24 No. 3; The Cover Classic Pro Foundation SPF 24 No. 4; The Cover Classic Pro Foundation SPF 24 No. 5; The Cover Classic Soft Foundation SPF 24 No. O2; The Cover Classic Soft Foundation SPF 24 No. O3; The Cover Classic Soft Foundation SPF 24, No. N2; The Cover Classic Soft Foundation SPF 24, No. O2; The Cure Oil-Free; The Cure Sheer Cream; The First Fermented Essence Bb Balm Spf25; The First Sun Spf50 Plus Pa Plus Plus Plus; The Fresh Market SPF 15 Lip Balm Broad Spectrum Acai Berry; The Healthy Foundation SPF 20; The History Of Whoo Gong Jin Hyang Hae Yoon Sun; The History of Whoo Jin Hae Yoon Sun; The Oriental Gyeol Goun Two Way Pact; The SPF 18 Fluid Tint; The Skincare Day Essential Moisturizer Enriched SPF 10; The Skincare Day Essential Moisturizer Light SPF 10; The Skincare Day Essential Moisturizer SPF 10; The Skincare Protective Lip Conditioner SPF 10; The Sof Fluid Long Wear Foundation Broad Spectrum SPF 20; The Sytle Fitting Wear Cashmere SPF15 No.1; The Sytle Fitting Wear Cashmere SPF15 No.2; The Treatment Powder Foundation SPF 15; The UV Protector Youth and Radiance With Sunscreen Blemish Balm Broad Spectrum SPF50; The Yeon Cmk Pore Blemish Bc 01 Pink Beige; The Yeon Cmk Pore Blemish Bc 02 Natural Beige; The Yeon Lotus Flower Bc Cushion Pact 01 Light Beige; The Yeon Lotus Flower Bc Cushion Pact 02 Natural Beige; The Yeon Style Y Long Wear Perfect Fit Bb 21 Light Beige; The Yeon Style Y Long Wear Perfect Fit Bb 23 Natural Beige; The Youth As We Know It; TheFaceShop Jelly Pact 34200187; TheFaceShop Jelly Pact 34200188; TheradermSPF 43 SPF 43; Therapeutic Aquaderm-15; Therapeutic Hand Cream; Three step hand care Day Care SPF 15; Ti-uva-B; Tiege Hanley AM Morning Facial Moisturizer with SPF20; Tiege Hanley Daily Moisturizer SPF20; Time Dynamics Time Protector Daily Defense SPF 15; Time Dynamics Travel Kit Jafra; Time Frame Future Resist Foundation Broad Spectrum SPF 20 Truffle Delilah Cosmetics; Time Repair Am SPF 15; Time Revolution White Cure Blanc Tone Up Sun Protector; Time Zone Line and Wrinkle Reducing Creme SPF 15 Normal Combo Skin; Timeless Age Defying SPF 20 Merle Norman; Timeless Age-defying Makeup Broad Spectrum SPF 20; Timeless Anti-Aging BB Broad Spectrum SPF 30; Timeless Ferment Sanil Sun; Timeless Illuminating Makeup Broad Spectrum SPF 30; Timeless Illuminating Makeup SPF 30 Alabaster Beige Merle Norman; Timeless Illuminating Makeup SPF 30 Alabaster Merle Norman; Timeless Illuminating Makeup SPF 30 Creamy Beige Merle Norman; Timeless Illuminating Makeup SPF 30 Ivory Merle Norman; Timeless Illuminating Makeup SPF 30 Light Beige Merle Norman; Timeless Illuminating Makeup SPF 30 Porcelain Merle Norman; Timeless Illuminating Makeup SPF 30 Pure Beige Merle Norman; Timeless Illuminating Makeup SPF 30 Quiet Rose Merle Norman; Timeless Illuminating Makeup SPF 30 Rich Walnut Merle Norman; Timeless Illuminating Makeup SPF 30 Sandy Beige Merle Norman; Timeless Illuminating Makeup SPF 30 Sesame Merle Norman; Timeless Illuminating Makeup SPF 30 Simply Beige Merle Norman; Timeless Illuminating Makeup SPF 30 Soft Bisque Merle Norman; Tinted BB; Tinted Day (UVA/UVB) SPF 34; Tinted Lip Conditioner SPF 15; Tinted Lip Conditioner SPF 15 Plus Lavender; Tinted Lipbalm; Tinted Moisturizer Broad-Spectrum SPF 45; Tinted Moisturizer Matte Broad Spectrum SPF 45; Tinted Moisturizer Oil Free SPF 15; Tinted Moisturizer SPF 12 Fair-medium Eml; Tinted Moisturizer SPF 12 Medium-dark Eml; Tinted Moisturizer SPF 12-jarrah Lot; Tinted Moisturizer SPF 15; Tinted Moisturizer SPF 20 Bisque; Tinted Moisturizer SPF 30 SPF 30; Tinted Moisturizer SPF 45 Matte; Tinted Moisturizer SPF-15; Tinted Moisturizer SPF-20 Golden Radiance; Tinted Moisturizer SPF20 Dark; Tinted Moisturizer SPF20 Light; Tinted Moisturizer SPF20 Medium; Tinted SPF 45; Toast Always Color Stay-On Makeup SPF 10; Toast Always color stay-on Makeup Broad Spectrum SPF 15 Jafra; Toffee Always Color Stay-On Makeup SPF 10; Toffee Always color stay-on Makeup Broad Spectrum SPF 15 Jafra; Tolsom Skin Protective Lotion SPF 15; Tolsom Skin Protective SPF 15 Sunscreen; Tom Ford Soleil Tinted Moisturizer Broad Spectrum SPF 30; Tom Ford Soleil Tinted Moisturizer SPF 30; Tom Ford Traceless Foundation SPF 15; Tom Ford Traceless Perfecting Foundation SPF 15; Tomato Sun SPF 36 Pa Plus Plus; Tomato Wrinkle Sun Spf36 Pa Plus Plus; Tone Up White Sun; Tonymoly Bcdation Multi Use Sun; Tonymoly Kiss Kiss Lip Essence Balm; Tonymoly Luminous Goddess Aura Bb 02; Tonymoly Magic Food Mango Mild Sun Block; Too Cool For School DINO PLATZ CINEMA CITY (CC CHEEK); Too Cool For School DINO PLATZ CINEMA CITY (CC CONCEALER); Too Cool For School DINO PLATZ CINEMA CITY (CC Highlighter); Too Cool For School DINOPLATZ LOOSE and SILLY No. 1 Definition; Too Cool For School DINOPLATZ LOOSE and SILLY No. 2 Illusion; Too Cool For School DINOPLATZ La Ola Noche No.23; Too Cool For School DINOPLATZ La Ola Viento No.21; Top White; Top White Skin Lightening; TopCare Daily Moisturizer for face; Topiclear; Topiclear Carrot; Topiclear Cocoa Butter; Topiclear Cocoa Butter beauty; Topiclear Lemon; Topiclear Paris; Topiclear Paris Beauty; Topiclear Skin Lightening; Topiclear Xtra beauty; Topiclear Xtra lemon beauty; Total Active Dual BB SPF50 PLUS PA PLUS PLUS PLUS; Total Age Defy SPF 15 Sunscreen; Total Cover Sunblock 30spf Crm; Total Defense + Repair Broad Spectrum SPF 34 Sunscreen; Total Defense + Repair Broad Spectrum SPF 34 Sunscreen Tinted; Total Defense + Repair Broad Spectrum SPF 50+ Sunscreen; Total Protector 30; Total Protector Color 30 Medium Tint; Total Protrector 15; Total Sun Protection; Total Sunblock Lotion SPF 45; Total Suncare Sunscreen SPF 15; Total Suncare Sunscreen SPF 30; Total Suncare Sunscreen SPF 50; Total Suncare Sunscreen SPF 70; Total Truth Eye CRème SPF 15; Total Truth Eye Creme SPF 15 Ole Henriksen; Total White Brightening; Touch SPF 15; Touch Soft SPF 14; Tourist Spf30; Tow Mater Sun Smacker SPF 24 Tow-Tally Orange; Traceless Perfecting Foundation Broad Spectrum SPF 15; Traceless Skin Responsive Tint; Traitement Solaire Special Contour Des Yeux; Traitement Solaire Sun Mat Control; Traveler Spf15; Treat and Tint Skin Perfecting Bb SPF 30; Treatment Lipshine SPF 15; Tri-phasic White Day Milk Lotion SPF 15; TriLipiderm Broad Spectrum SPF 30; Trienelle Skincare Daily Renewal Creme with Tocallure Restoration Complex Broad Spectrum SPF 15; Trienelle Skincare Instant Illusion Daily Renewal Creme; Triple Essentials; Triple Performing Facial Emulsion; Triple Protect Face Lotion SPF 20; Triple Protection Moisture Lotion SPF 15; Tropic Tanning Oil With Sunscreen; Tropical Coconut SPF 30 Broad Spectrum; Tropical Pineapple Jumbo Lip Balm; Tropical SPF 15 Lip; Tropical Solutions Facial Moisturizer SPF 15; Tropical Vanilla Body SPF 32; Tropical Vanilla Body Sunscreen Broad Spectrum SPF 32; Tropical Vanilla Sun Cream; Tropical Vanilla Sunscreen Broad Spectrum SPF 32; Tropiques Minérale; TruAge AGE Therapy Lip Balm SPF15; TruAge Lip Balm Pink Grapefruit SPF15; TruAge Lip Balm Pomegranate Mint SPF15; Trucco Skintones; Trucco Tinted Moisturizer SPF 8; Trucco Triplicity SPF 15; True Beige Always Color Stay-On Makeup SPF 10; True Beige Always color stay-on Makeup Broad Spectrum SPF 15 Jafra; True Blue Spa Cooling Sunscreen Mist Broad Spectrum SPF 25 Water Resistant (40 minutes) Monoi Oil; True Colors:  Rouge Transparent Fps 8; True Finish Powder Makeup SPF 15 Sunscreen; True Illusion SPF 10; True Match Lumi; Truecomfort Tm Lipcare SPF-25; Truffle EX Sun Spf50 Plus Pa Plus Plus Plus; Truth Revealed Super Creme With SPF 15; Truth Revealed super creme SPF 15 Ole Henriksen; Turf Screen Crew Broad Spectrum Sunscreen; USANA Lip Moisturizer; UV Capture Sebum Control Sun Cream; UV Capture Sun BB; UV Capture Sun Pact; UV Capture Vita Sun Gel; UV Capture Water Zero Sunspray; UV SUNSET Body And Family Sun; UV Shield SPF 42; Ugly Duck Miracle Multi Shield Sun Gel; Ulta Beauty Tinted Moisturizer SPF-30; Ulta Oil Free Sunscreen Spf30; Ulta SPF30; Ulta SUNSCREEN SPF 15; Ulta SUNSCREEN SPF 45; Ulta Tanning SPF 4; Ultimate Aqua Blanc Protective; Ultimate Aqua Blanc Protective 10ml; Ultimate Aqua Blanc Protective Lotion; Ultimate Correcting Base Spf50; Ultimate Day Age Defying Cream Creme Defi-age SPF/fps 25; Ultimate Day Transforming Lift Cream SPF 15; Ultimate Match Liquid Foundation SPF 15; Ultimate Sheer; Ultimate Sheer Tinted Moisturizer 181 Nude/nue; Ultimate Sheer Tinted Moisturizer 182 Natural/naturel; Ultimate Sheer Tinted Moisturizer SPF 15; Ultimate Transforming Hand and Nail Cream SPF 15; Ultra Calming Daily Moisturizer SPF 15; Ultra Care SPF 18 Day Lotion; Ultra Color Absolute; Ultra Color Absolute Lipstick Rouge à Lèvres; Ultra Color Rich Cool Bliss; Ultra Color Rich Cool Bliss Lipstick/rouge à Lèvres SPF 15/fps 15; Ultra Color Rich Lip Gloss Lèvres SPF/fps 15; Ultra Color Rich Mega Impact; Ultra Color Rich Mega Impact Lipstick SPF 15 Rouge A Levres Mega Impact Fps 15; Ultra Color Rich Moisture Seduction; Ultra Color Rich Moisture Seduction Lipstick/rouge à Lèvres; Ultra Correction  - Emulsion Restructurante SPF 10; Ultra Correction - Creme Restructurante SPF 10; Ultra Correction Creme Retructurante - SPF 10; Ultra Correction Emulsion Restructurante - SPF 10; Ultra Correction Lift CRème De Jour Lift Fermeté; Ultra Correction Lift Fluide De Jour Lift Fermete; Ultra Correction Lift SPF 15; Ultra Correction Line Repair - CRème De Jour Anti-rides; Ultra Correction Line Repair - Fluide De Jour Anti-rides; Ultra Correction Line Repair SPF 15; Ultra Correction SPF 15; Ultra Defense Spray Sunscreen Ecran Solaire En Vaporisateur SPF/fps 30; Ultra Defense Spray Sunscreen/ecran Solaire En Vaporisateur SPF/fps 50; Ultra Facial Moisturizer SPF 15; Ultra Facial Tinted Moisturizer SPF 15 Sunscreen; Ultra Hd Perfector Blurring Skin Tint With Sunscreen Broad Spectrum SPF 25 03; Ultra Hd Perfector Blurring Skin Tint With Sunscreen Broad Spectrum SPF 25 04; Ultra Hd Perfector Blurring Skin Tint With Sunscreen Broad Spectrum SPF 25 05; Ultra Hd Perfector Blurring Skin Tint With Sunscreen Broad Spectrum SPF 25 06; Ultra Hd Perfector Blurring Skin Tint With Sunscreen Broad Spectrum SPF 25 07; Ultra Hd Perfector Blurring Skin Tint With Sunscreen Broad Spectrum SPF 25 08; Ultra Hd Perfector Blurring Skin Tint With Sunscreen Broad Spectrum SPF 25 09; Ultra Hd Perfector Blurring Skin Tint With Sunscreen Broad Spectrum SPF 25 10; Ultra Hd Perfector Blurring Skin Tint With Sunscreen Broad Spectrum SPF 25 11; Ultra Hd Perfector Blurring Skin Tint With Sunscreen Broad Spectrum SPF 25 12; Ultra Mist Banana Boat Kids Sunblock Lotion Ecran Solaire Pour Enfants Uva & Uvb SPF Fps 50; Ultra Mist Banana Boat Sport Clear Sunblock Ecran Solaire Incolore Uva & Uvb SPF Fps 30; Ultra Mist Banana Boat Ultra Clear Sunblock Ecran Solaire Incolore Uva & Uvb SPF Fps 30; Ultra Moisture Rich Sheer Lipstick Rouge A Levres Diaphane SPF/fps 15; Ultra Moisturizing Day Care SPF 15; Ultra Moisturizing Sun; Ultra Protection Water-based Sunscreen Lotion SPF 25; Ultra Soft Hydrating Sunblock SPF 30; Ultra Soft Hydrating Sunblock SPF 45; Ultra Sport Lotion 15 SPF; Ultra Sport Lotion 30 SPF; Ultra Sun Block Lotion SPF 30; Ultra Sun Protection Cream; Ultra Sun Protection Lotion; Ultra Sun Protection Lotion Ti; Ultra Sunblock Lotion SPF 30; Ultra Umbrella; Ultra-lift Anti-wrinkle Firming Moisture Cream SPF 15; Ultra-lift Day Cream SPF 15; Ultra-lift Glow Anti-wrinkle Firming Moisture Cream SPF 15; Ultra-rich Hydration; Ultramist Banana Boat Dark Tanning Lotion SPF 4; Ultraplus Day Cream (with Sun Protection); Ultraprotection; Ultraquin 4% Hydroquinone Cream With Sunscreens; Ultrasol KIDS Sunscreen; Ultrasol Kids; Ultrasol OIL-FREE Sunscreen; Ultrasol Sport; Ultrasol Sport Sunscreen; Ultrasol Sunscreen; Ultrasol Sunscreen Lotion SPF 45; Ultrasol Sunscreen Spf45; Ultrasol nature BABY Sunscreen; UltrasolSunscreen Clear CONTINUOUS SPRAY SPF43; UltrasolSunscreen KIDS Clear CONTINUOUS SPRAY; UltrasolSunscreen KIDS Sunscreen Lotion; UltrasolSunscreen KIDS Sunscreen Lotion Continuous Spray SPF 45; UltrasolSunscreen KIDS Sunscreen Lotion SPF 34; UltrasolSunscreen KIDS Sunscreen Mousse; UltrasolSunscreen KIDS Sunscreen Spray Lotion SPF 30; UltrasolSunscreen Sport Clear CONTINUOUS SPRAY; UltrasolSunscreen Sport Sunscreen Lotion CONTINUOUS SPRAY SPF 45; UltrasolSunscreen Sunscreen Face Cream SPF 34; UltrasolSunscreen Sunscreen Lotion Continuous Spray SPF 45; UltrasolSunscreen Sunscreen Lotion SPF 34; UltrasolSunscreen Sunscreen Lotion SPF45; UltrasolSunscreen Sunscreen Spray Lotion SPF 15; UltrasolSunscreen nature BABY Sunscreen Face Cream SPF 45; Umbrella; Umbrella Sunscreen; Universal Anti-aging Daily Moisturizing Cream SPF 30; Uniwell Aqua Suncream; Unscented Body SPF 30 Broad Spectrum; Unscented Classic Face SPF 30 Broad Spectrum; Unseen Sunscreen Broad Spectrum SPF 40; Urban Active Creme SPF 15; Urban Active Fluide SPF 15; Urban Decay Naked Skin Beauty Balm SPF 20; Urban Decay Naked Skin Bronzing Beauty Balm SPF 20; Urban Decay Naked Skin Dark Beauty Balm SPF20; Urban Decay Naked Skin Illuminating Beauty Balm SPF20; Urban Decay Naked Skin Light Beauty Balm SPF20; Urban Decay Naked Skin One and Done Hybrid Complexion Perfector Broad Spectrum SPF 20; Urban Defense; Urban Environment Oil-free Uv Protector; Urban Environment Tinted Uv Protector; Urban Environment Uv Protection Cream; Usana Sunblock Lotion SPF 15; Usana Sunblock Lotion SPF 30 Plus; Utiliscreen Sunscreen; Uv Aero; Uv Bounce Mist; Uv Daily Tinted; Uv Essentiel; Uv Essentiel Complete Sunscreen Uv Protection Anti-pollution Broad Spectrum SPF 20; Uv Essentiel Complete Sunscreen Uv Protection Anti-pollution Broad Spectrum SPF 30; Uv Essentiel Complete Sunscreen Uv Protection Anti-pollution Broad Spectrum SPF 50; Uv Essentiel Daily Defense Sunscreen Anti-pollution Broad Spectrum SPF 30; Uv Essentiel Daily Defense Sunscreen Anti-pollution Broad Spectrum SPF 50; Uv Essentiel SPF 50; Uv Essentiel Soin Quotidien Multi-protection Uv Daily Uv Care Multi-protection SPF 20; Uv Essentiel Soin Quotidien Multi-protection Uv Daily Uv Care Multi-protection SPF 30; Uv Essentiel Soin Quotidien Protection Uv Globale Complete Daily Uv Protection SPF 50/pa+++; Uv Hydrator; Uv Lip Balm; Uv Lock Flower 3 Proof Sun Spf50plus Pa Plus Plus Plus; Uv Lock Flower Daily Powerful Sun Spf50plus Pa Plus Plus Plus; Uv Lock Flower Kids and Junior Sun Spf35 Pa Plus Plus; Uv Lock Flower Mild Sun Spf35 Pa Plus Plus; Uv Lock Flower Pact Sun Spf50plus Pa Plus Plus Plus; Uv Lock Flower Sun Spf50plus Pa Plus Plus Plus; Uv Lock Flower Water Gel Sun Spf30 Pa Plus Plus; Uv Lock Flower Water Proof Sun Spf50plus Pa Plus Plus Plus; Uv Lock Ultra Milk Sun Big Size Spf50plus Pa Plus Plus Plus; Uv Lock Ultra Milk Sun Spf50plus Pa Plus Plus Plus; Uv Lock Ultra Pact Sun Spf50plus Pa Plus Plus Plus; Uv Mild Sun Block; Uv Pro Broad Spectrum SPF 30; Uv Pro Broad Spectrum SPF 45; Uv Protect SPF 25; Uv Protectant SPF 15 Lot; Uv Protective Compact Foundation (refill); Uv Protective Stick Foundation; Uv Stop - Lot; Uv-total Creme Ecran Solaire Fps 30; Uva/uvb SPF 15 Rodan and Fields; V V Bouncing Cushion Be10; V V Bouncing Cushion Be20; V V Bouncing Cushion Bp15; VANICREAM Sunscreen BROAD SPECTRUM SPF 35; VIVITE Daily Facial Moisturizer with Sunscreen SPF 30; Vanilla Latte Tinted Moisturizer; Vanilla Latte Tinted Moisturizer Broad Spectrum SPF 25 Sunscreen Light; Vanilla Lip Balm SPF 15; Vanilla Perfecting Makeup Broad Spectrum SPF 25 Merle Norman; Vanilla SPF 15 Lip; Vanilla Sunscreen Lip Moisturizer; Vaseline Aloe Fresh Hydrating + SPF Body Lotion; Vaseline Aloe Fresh Hydrating + SPF Body Lotion With Aloe and Sunscreen; Vaseline Br.der.fmla Uv Dly.deF.H.B.lotspf15; Vaseline Br.int.care Broad Spectrum Sb.spf15; Vaseline Brand Int Care Sprt Sunsc Lot Spf15; Vaseline Brand Intens Care Sunblock Lot Spf15; Vaseline Brand Intens Care Sunblock Lot Spf25; Vaseline Brand Intensive Care Suntan Lot Spf2; Vaseline Brand Intensive Care Suntan Lot Spf4; Vaseline Brnd Intensv Care Sunblk Lot Spf35; Vaseline Intensive Care Aloe Fresh Protecting Body Lotion; Vaseline Intensive Care Firming & Radiance Enriched Nourishing Lotion; Vaseline Intensive Care Lotion - Total Care SPF 15; Vaseline Intensive Care Renew and Protect Lotion; Vaseline Lip Therapy Spf15 Gel; Veil Fluid Makeup Beige SPF 15; Veil Fluid Makeup Chestnut SPF 15; Veil Fluid Makeup Honey SPF 15; Veil Fluid Makeup Ivory SPF 15; Veil Fluid Makeup Light Beige SPF 15; Veil Fluid Makeup Nude SPF 15; Veil Fluid Makeup Porcelain SPF 15; Veil Fluid Makeup Sable SPF 15; Veil Fluid Makeup Sand SPF 15; Veil Fluid Makeup Walnut SPF 15; Veil Fluid Makeup Warm Beige SPF 15; Venofye Orchard Bee Brilliance SPF 30; Verdon Outdoor Moisturizer SPF 30; Vertra Elemental Resistance Mick Fanning Signature SPF 28; Vertra Elemental Resistance Water Resistant Sunscreen; Vichy Laboratoires Normaderm Pro Mat Ultra Mattifying Oil-Free Lotion SPF 15; Vichy Laboratoires ProEven Mineral BB Broad Spectrum SPF 20 Sunscreen; Vichy-ecran Total Multi Reflec Crm Spf20; Vichy-fluide Hydrat.matifiant Non Gras Fps13; Vichy-lait Solaire SPF 10; Vichy-lait Solaire Special Enf Spf12; Victorias Secret Pink Broad Spectrum SPF 25 Sunscreen Sunkissed; Victorias Secret Sun Broad Spectrum SPF 25; Villa Floriani Chamomile Calming Day SPF 20; Villa Floriani Mint Purifying Day SPF 20; Vincent Longo Ultra Light Canvas Tinted Moisturizer Broad Spectrum SPF 20 Sunscreen Shade 1; Vincent Longo Ultra Light Canvas Tinted Moisturizer Broad Spectrum SPF 20 Sunscreen Shade 2; Vincent Longo Ultra Light Canvas Tinted Moisturizer Broad Spectrum SPF 20 Sunscreen Shade 3; Vincent Longo Ultra Light Canvas Tinted Moisturizer Broad Spectrum SPF 20 Sunscreen Shade 4; Vincent Longo Ultra Light Canvas Tinted Moisturizer Broad Spectrum SPF 20 Sunscreen Shade 5; Vincent Longo Ultra Light Canvas Tinted Moisturizer Broad Spectrum SPF 20 Sunscreen Shade 6; Vine Vera Resveratrol Zinfandel Radiance; Vinefit Fluide SPF 15; Vinefit SPF 15; Vinexpert Broad Spectrum SPF 15 Radiance Day; Vinexpert Broad Spectrum SPF 15 Radiance Day Fluid; Vinoperfect Broad Spectrum SPF 15 Day Perfecting; Vinoperfect Broad Spectrum SPF 15 Day Perfecting Fluid; Vinoperfect Radiance Moisturizer Broad Spectrum SPF20; Virtual Matte Oil Control Makeup Broad Spectrum SPF 15; Virtual Skin Super Natural Finish SPF 10; Visible Difference Gentle Hydrating Broad Spectrum Sunscreen SPF 15; Visible Difference Gentle Hydrating Cream SPF 15; Visible Difference Multi Targeted Bb Cream Broad Spectrum Sunscreen SPF 30 Shade 1; Visible Difference Multi Targeted Bb Cream Broad Spectrum Sunscreen SPF 30 Shade 2; Visible Difference Multi Targeted Bb Cream Broad Spectrum Sunscreen SPF 30 Shade 3; Visible Difference Multi-targeted Bb Cream Broad Spectrum Sunscreen SPF 30; Visible Difference Skin Balancing Lotion SPF 15; Visible Difference Skin Balancing Sunscreen SPF 15; Visible Lift Firming SPF 17; Visible Lift Spf17; Visible Results SPF 15; Visual Perfection Tint Releasing Moisturizer SPF 20; Vita K; Vita Lift   (SPF 15); Vita Water Drop Cc; Vital Defense Lip Treatment - Stk; Vital Protection SPF 15; Vital Sun Protection SPF 40; Vitalizing Eye Cream With SPF 15; Vitalumiere Aqua Fresh and Hydrating Compact Sunscreen Makeup Broad Spectrum SPF 15, 10 Beige; Vitalumiere Aqua Fresh and Hydrating Compact Sunscreen Makeup Broad Spectrum SPF 15, 20 Beige; Vitalumiere Aqua Fresh and Hydrating Compact Sunscreen Makeup Broad Spectrum SPF 15, 22 Beige Rose; Vitalumiere Aqua Fresh and Hydrating Compact Sunscreen Makeup Broad Spectrum SPF 15, 30 Beige; Vitalumiere Aqua Fresh and Hydrating Compact Sunscreen Makeup Broad Spectrum SPF 15, 32 Beige Rose; Vitalumiere Aqua Fresh and Hydrating Compact Sunscreen Makeup Broad Spectrum SPF 15, 40 Beige; Vitalumiere Aqua Fresh and Hydrating Compact Sunscreen Makeup Broad Spectrum SPF 15, 42 Beige Rose; Vitalumiere Aqua Fresh and Hydrating Compact Sunscreen Makeup Broad Spectrum SPF 15, 50 Beige; Vitalumiere Aqua Fresh and Hydrating Compact Sunscreen Makeup Broad Spectrum SPF 15, 52 Beige Rose; Vitalumiere Aqua Fresh and Hydrating Compact Sunscreen Makeup Broad Spectrum SPF 15, 60 Beige; Vitalumiere Aqua Fresh and Hydrating Cream Compact Makeup; Vitalumiere Aqua SPF 15; Vitalumiere Aqua Ultra-light Skin Perfecting Sunscreen Makeup Broad Spectrum SPF 15, 10 Beige; Vitalumiere Aqua Ultra-light Skin Perfecting Sunscreen Makeup Broad Spectrum SPF 15, 12 Beige Rose; Vitalumiere Aqua Ultra-light Skin Perfecting Sunscreen Makeup Broad Spectrum SPF 15, 20 Beige; Vitalumiere Aqua Ultra-light Skin Perfecting Sunscreen Makeup Broad Spectrum SPF 15, 22 Beige Rose; Vitalumiere Aqua Ultra-light Skin Perfecting Sunscreen Makeup Broad Spectrum SPF 15, 30 Beige; Vitalumiere Aqua Ultra-light Skin Perfecting Sunscreen Makeup Broad Spectrum SPF 15, 32 Beige Rose; Vitalumiere Aqua Ultra-light Skin Perfecting Sunscreen Makeup Broad Spectrum SPF 15, 40 Beige; Vitalumiere Aqua Ultra-light Skin Perfecting Sunscreen Makeup Broad Spectrum SPF 15, 42 Beige Rose; Vitalumiere Aqua Ultra-light Skin Perfecting Sunscreen Makeup Broad Spectrum SPF 15, 50 Beige; Vitalumiere Aqua Ultra-light Skin Perfecting Sunscreen Makeup Broad Spectrum SPF 15, 52 Beige Rose; Vitalumiere Aqua Ultra-light Skin Perfecting Sunscreen Makeup Broad Spectrum SPF 15, 70 Beige; Vitalumiere Moisture-rich Radiance Sunscreen Fluid Makeup, Broad Spectrum SPF 15, 07 Ivoire; Vitalumiere Moisture-rich Radiance Sunscreen Fluid Makeup, Broad Spectrum SPF 15, 20 Clair; Vitalumiere Moisture-rich Radiance Sunscreen Fluid Makeup, Broad Spectrum SPF 15, 30 Cendre; Vitalumiere Moisture-rich Radiance Sunscreen Fluid Makeup, Broad Spectrum SPF 15, 35 Soft Bisque; Vitalumiere Moisture-rich Radiance Sunscreen Fluid Makeup, Broad Spectrum SPF 15, 40 Beige; Vitalumiere Moisture-rich Radiance Sunscreen Fluid Makeup, Broad Spectrum SPF 15, 41 Natural Beige; Vitalumiere Moisture-rich Radiance Sunscreen Fluid Makeup, Broad Spectrum SPF 15, 50 Naturel; Vitalumiere Moisture-rich Radiance Sunscreen Fluid Makeup, Broad Spectrum SPF 15, 51 Tawny Beige; Vitalumiere SPF 15; Vitalumière - CRème De Teint éclat - SPF 15; Vitalumière - Fluide De Teint éclat - SPF 15; Vitalumière Aqua; Vitamin C Daily Moisturiser With SPF 15; Vitamin C Daily Moisturizer SPF 30; Vitamin C Glow-protect Lotion SPF 30; Vitamin C Glow-protect SPF 30; Vitamin Cream C Plus C; Vitamin E Lip Conditioner SPF 15; Vitamin E Moisture Lotion Spf15; Vitamin E Moisture SPF 15; Vitamin E Moisture-protect Emulsion SPF 30 Pa+++; Vitamin Fluid CC; VivierSkin Sun Protection SPF 45; Vivierskin Sheer Broad Spectrum SPF30; Vivierskin Sheer Broad Spectrum SPF45; Vivierskin Sunscreen SPF 30; Voile Solaire/sun Veil; Voile Universel-SPF 15; W Honey Beam Cushion 21; W Honey Beam Cushion 23; W Lab BLOSSOM WHITE CUSHION 13 Blossom White; W Lab BLOSSOM WHITE CUSHION 21 Blossom Light; W Lab BLOSSOM WHITE CUSHION 23 Blossom Beige; Walgreens Anti-Sagging and Ultra Hydrating Day Cream Broad Spectrum SPF15 Sunscreen; Walgreens Chap Aid Moisturizer; Walgreens Dark Tanning Oil Sunscreen SPF 4; Walgreens Sunscreen SPF 15; Walgreens SunscreenSPF 45 SPF 45 SPF 45; Warm Ginger Always Color Stay-On Makeup SPF 10; Warm Ginger Always color stay-on Makeup Broad Spectrum SPF 15 Jafra; Warm Honey Always Color Stay-on Makeup Broad Spectrum SPF 15 Jafra; Warm Honey Perfecting Makeup Broad Spectrum SPF 25 Merle Norman; Water Babies Sunblock Lot Spf15; Water Babies Uv Guard SPF-30 Lotion; Water Babies Uvguard SPF 15 Lotion; Water Resistant Fragrance Free Sun Block SPF 15; Water Resistant Natural Lavender Sun Block SPF 30; Waterblock Solar SPF 30; Waterblock Solar Spray SPF 30; Waterbright Radiating; Waterful Sun; Watermelon Facial Sunblock SPF 20 Stk; Watermelon Sun Block Unfragranced SPF 20; Watermelon Sun Lotion SPF 12; Watermelon Sun Spray SPF 6 Liq; Watermelon Sunblock SPF 20 Unfragranced Eml; Watermelon Tanning Oil; Waterproof SPF-15 Sunblock Lotion; Waterproof Solar Spray SPF 25; Waterwhite Brightening Lotion SPF 15; Waterworld Sport Sun Block SPF 15; Watkins Aloe Vera Botanical Lip Balm; Webb Candy; Welcome Matte SPF 15; Wet N Wild Beauty Benefits Fresh Effects Liquid Foundation SPF 15; Wet N Wild Coloricon Bronzer; Wet N Wild Juicy Lip Balm; Wet N Wild Megashield; Wet N Wild Pout Protector - (750-757) - Clear SPF 15; Wet N Wild Pout Protector - 752 - Tint Of Blush SPF 15; Wet N Wild Pout Protector - 753 - Tint Of Pink - SPF 15; Wet N Wild Pout Protector - 754 - Tint Of Bronze SPF 15; Wet N Wild Pout Protector - 755 - Tint Of Caramel - SPF 15; Wet N Wild Pout Protector - 756 - Tint Of Plum - SPF 15; Wet N Wild Pout Protector - 757- Tint Of Cranberry - SPF 15; Wet N Wild Ultimate Match; Wet N Wild Ultimate Match SPF 15 Liquid Foundation; Wet N Wild Ultimate Sheer; White Caviar Illuminating Hand Sunscreen Broad Spectrum SPF 15; White Caviar Illuminating Hand Sunscreen Broad Spectrum SPF 15 La Prairie; White Girl Sunscreen; White Stick; Whitening Glycobest; Whoo Gong Jin Hyang Jin Hae Yoon Sun; Winco Moisture SPF 15 Lip Balm; With 6 SPF Sunscreen Uva/uvb Protection Self Tanning Essential Bronze Milk; With 6 SPF Sunscreen Uva/uvb Protection Self Tanning Ultra Natural Bronze Care; Wknd Underwater Sun Screen 40ml; Wknd Underwater Sun Screen 80ml; Wonder Intensive BBCream 21 (Light); Wrinkle De-crease SPF 15; Wrinkle Repair Moisturizing Cc Cream SPF 30; Wrinkle Repair Moisturizing Cream SPF 30; YVES ROCHER hydra vegetal HYDRATING DAY SPF 25 SUNSCREEN; Yadah Airpowder Pact 19 Light Beige; Yadah Airpowder Pact 21 Natural Beige; Yadah Be My Cushion 21 Light Beige; Yadah Be My Cushion 23 Natural Beige; Yadah Oh My Sun Block; Yadah Silky Fit Concealer Bb Power Brightening; Yadah Twin Angel Bb; Yam Double Care Fluid Spf17 Pa Plus Plus; You Rebel; Your Name Cosmetics Brightening CC Cream Broad Spectrum SPF 20; YourGoodSkin SPF 30 Anti-oxidant Day Sunscreen Broad Spectrum SPF 30; Youth Cell Day Cream Broad Spectrum SPF-15 Sunscreen (50 ml); Youth Code Bb Cream Illuminator; Youth Code Skin Illuminator Tinted; Youth Full Tinted Moisturizer SPF 15; Youth Surge SPF 15 Age Decelerating Moisturizer Anti Rides Hydratant; Youth Surge SPF 15 Age Decelerating Moisturizer Dry Combination Skin; Youth for Life SPF 30; Youthful Look; Youthful Wear Spotless Concealer SPF 15; Youthful Wear Spotless Foundation SPF 15; Yria Teint Frais Creme Teintee Vitaminee; Yria Teint Rayonnant Fond De Teint Diffuseur De Lumiere Fps 14 Teintes 240, 241, 340, 341, 440, 441; Yria Teint Rayonnant Fond De Teint Diffuseur De Lumiere Fps14 Teintes 140 Et 141; Yves Saint Laurent All Hours Foundation Broad Spectrum SPF 20 Sunscreen; Yves Saint Laurent All Hours Primer Broad Spectrum SPF 18 Sunscreen; Yves Saint Laurent Forever Light Creator CC Primer Color Correcting Primer Broad Spectrum SPF 35 Sunscreen; Yves Saint Laurent Forever Youth Liberator; Yves Saint Laurent Le Teint Encre De Peau Fusion Ink Foundation Broad Spectrum SPF 18 Sunscreen; Yves Saint Laurent Le Teint Touche Eclat Illuminating Foundation Broad Spectrum SPF 19 Sunscreen; Yves Saint Laurent Le Teint Touche Eclat Sunscreen Illuminating Foundation SPF 19; Yves Saint Laurent Rouge Pur Couture Pure Colour Satiny Radiance; Yves Saint Laurent Terre Saharienne Bronzing; Yves Saint Laurent Top Secrets All In One BB; Yves Saint Laurent Top Secrets CC Primer Color Correcting Primer Broad Spectrum SPF 35 Sunscreen; Yves Saint Laurent Touche Eclat All in One Glow Instant Complexion Enhancer Broad Spectrum SPF 23 Sunscreen; Yves Saint Laurent Touche Eclat Le Teint Radiance Awakening Foundation Broad Spectrum SPF 22 Sunscreen; Yves Saint Laurent Youth Liberator Serum Foundation; ZO SKIN HEALTH OCLIPSE SUN SPF 50 BROAD SPECTRUM SUNSCREEN SPF 50 FOR FACE PLUS BODY WATER/PERSPIRATION RESISTANT (80 minutes) UVA / UVB / HEV / IR-A PROTECTION ZOX12; ZO SKIN HEALTH ORASER ANTI-AGING HAND CARE PROGRAM Correct, protect and prevent aging hands; Zermat Skin Platinum Series Cellular Beauty Caviar and Collagen Day SPF 30; Zermat Skin SPF 50 Broad Spectrum; Zilactin-lip (regular and Cherry Flavour); Zinc Stick; Zinka Clear Zinc Oxide Sunscreen; Zinka Lemon Twist SPF 15 Lip Balm; Zinka Lip Protector SPF 30 Lip Balm; Zinka Passion Fruit SPF 15 Lip Balm; Zinka SPF 50 Facestick; Zinka Watermelon SPF 15 Lip Balm; Zo Skin Health Oclipse Daily Sheer Broad-spectrum Sunscreen SPF 50; Zoom Protective Lip Cream; Zrii New Day Broad Spectrum SPF-30; a.c. care Bees Sun Protection; a.c.care Bees Shield B.B Cream SPF 35; ac care Bees Shield BB Broad Spectrum SPF 35; ac care Bees Sun Protection Broad Spectrum SPF 50; anna lotan PRO CC Color Control SPF25 Broad Spectrum Protection for All Skin Types; anna lotan PRO PORCELAIN COVER SPF32 Tinted with Broad Spectrum Protection for All Skin Types; anna lotan PRO Protective LIGHTENING CARE UVA/UVB SPF 15 For Sun Damaged Skin; aqua fit cushion C11; aqua fit cushion C13; aqua fit cushion C21; aqua fit cushion C43; aqua fit cushion N21; aqua fit cushion N23; aqua fit cushion N27; aqua fit cushion N31; aqua fit cushion W21; aqua fit cushion W23; aqua fit cushion W33; aqua fit cushion W34; aqua fit cushion W35; aqua fit cushion W37; benefit BIG EASY BROAD SPECTRUM SPF 35 SUNSCREEN multi-balancing complexion perfector - 01 FAIR; benefit BIG EASY BROAD SPECTRUM SPF 35 SUNSCREEN multi-balancing complexion perfector - 02 LIGHT; benefit BIG EASY BROAD SPECTRUM SPF 35 SUNSCREEN multi-balancing complexion perfector - 03 LIGHTMEDIUM; benefit BIG EASY BROAD SPECTRUM SPF 35 SUNSCREEN multi-balancing complexion perfector - 04 MEDIUM; benefit BIG EASY BROAD SPECTRUM SPF 35 SUNSCREEN multi-balancing complexion perfector - 05 BEIGE; benefit BIG EASY BROAD SPECTRUM SPF 35 SUNSCREEN multi-balancing complexion perfector - 06 DEEP BEIGE; benefit DREAM SCREEN BROAD SPECTRUM SPF 45 SUNSCREEN FOR FACE; bioCorneum plus SPF 30 advanced SCAR SUPERVISION; bu SPF 30 Broad Spectrum Alcohol-Free Performance Sunscreen - Natural Citrus Scent; bu SPF 30 Broad Spectrum Alcohol-Free Performance Sunscreen - Natural White Sage Scent; bu SPF 30 Broad Spectrum on Alcohol-Free Performance Sunscreen - Fragrance Free; bu SPF 50 Broad Spectrum on Alcohol-Free Performance Sunscreen - Fragrance Free; bu SPF 50 KIDS Broad Spectrum Alcohol-Free Performance Sunscreen - Fragrance Free; bu SPF 50 S Broad Spectrum Alcohol-Free Performance Sunscreen - Natural White Sage Scent; ckone waterfresh face make up SPF 15 100 porcelain; correcting cream Broad Spectrum SPF 15 asap; defy time protector moisturizer broad spectrum SPF 15 Jafra time dynamics; elave Age Delay Daily Lip Defence SPF20; emilia Broad Spectrum; fine finish pressed powder C13; fine finish pressed powder C21; fine finish pressed powder C27; fine finish pressed powder C43; fine finish pressed powder N21; fine finish pressed powder N23; fine finish pressed powder N27; fine finish pressed powder N31; fine finish pressed powder N33; fine finish pressed powder W21; fine finish pressed powder W23; fine finish pressed powder W31; fine finish pressed powder W35; fine finish pressed powder W37; flormar ADVICE Skin Geometry Day Sunscreen Broad Spectrum SPF 15; flormar ADVICE Skin Geometry Purely Moisturizing Day Sunscreen Broad Spectrum SPF 15 Dry and Sensitive Skin; flormar ADVICE Skin Geometry Purely Moisturizing Day Sunscreen Broad Spectrum SPF 15 Normal and Combination Skin; flormar BB Sheer Tinted Beauty Sunscreen Broad Spectrum SPF 15 01 Light; flormar BB Sheer Tinted Beauty Sunscreen Broad Spectrum SPF 15 02 Light Medium; flormar BB Sheer Tinted Beauty Sunscreen Broad Spectrum SPF 15 03 Dark Medium; flormar BB Sheer Tinted Beauty Sunscreen Broad Spectrum SPF 15 04 Medium Beige; flormar BB Sheer Tinted Beauty Sunscreen Broad Spectrum SPF 15 05 Neutral Beige; flormar BB Sheer Tinted Beauty Sunscreen Broad Spectrum SPF 15 06 Warm Beige; flormar CC Magical Color Effect Color Correcting Cream Sunscreen Broad Spectrum SPF 15 CC02; flormar CC Magical Color Effect Color Correcting Cream Sunscreen Broad Spectrum SPF 15 CC03; flormar CC Magical Color Effect Color Correcting Cream Sunscreen Broad Spectrum SPF 15 CC04; flormar Concealer Sunscreen Broad Spectrum SPF 20 LC01 PURE BEIGE; flormar Concealer Sunscreen Broad Spectrum SPF 20 LC03 SOFT HONEY; flormar Concealer Sunscreen Broad Spectrum SPF 20 LC05 CAPPUCCINO; flormar Concealer Sunscreen Broad Spectrum SPF 20 LC07 NATURAL BEIGE; flormar Foundation Sunscreen Broad Spectrum SPF 20 LF01 PORCELAIN; flormar Foundation Sunscreen Broad Spectrum SPF 20 LF04 SOFT IVORY; flormar Foundation Sunscreen Broad Spectrum SPF 20 LF07 IVORY; flormar Foundation Sunscreen Broad Spectrum SPF 20 LF10 SAND BEIGE; flormar Foundation Sunscreen Broad Spectrum SPF 20 LF13 GOLDEN BEIGE; flormar Foundation Sunscreen Broad Spectrum SPF 20 LF16 NATURAL BEIGE; flormar Foundation Sunscreen Broad Spectrum SPF 20 LF19 BEIGE; flormar Foundation Sunscreen Broad Spectrum SPF 20 LF22 PURE BEIGE; flormar PERFECT COVERAGE FOUNDATION SUNSCREEN BROAD SPECTRUM SPF 15 101 Pastelle; flormar PERFECT COVERAGE FOUNDATION SUNSCREEN BROAD SPECTRUM SPF 15 102 Soft Beige; flormar PERFECT COVERAGE FOUNDATION SUNSCREEN BROAD SPECTRUM SPF 15 103 Creamy Beige; flormar PERFECT COVERAGE FOUNDATION SUNSCREEN BROAD SPECTRUM SPF 15 104 Vanille Eclat; flormar PERFECT COVERAGE FOUNDATION SUNSCREEN BROAD SPECTRUM SPF 15 105 Porcelain Ivory; flormar PERFECT COVERAGE FOUNDATION SUNSCREEN BROAD SPECTRUM SPF 15 106 Classic Ivory; flormar PERFECT COVERAGE FOUNDATION SUNSCREEN BROAD SPECTRUM SPF 15 107 Natural Ivory; flormar PERFECT COVERAGE FOUNDATION SUNSCREEN BROAD SPECTRUM SPF 15 108 Honey; flormar PERFECT COVERAGE FOUNDATION SUNSCREEN BROAD SPECTRUM SPF 15 113 Medium Beige; flormar PERFECT COVERAGE FOUNDATION SUNSCREEN BROAD SPECTRUM SPF 15 114 Light Beige; flormar PERFECT COVERAGE FOUNDATION SUNSCREEN BROAD SPECTRUM SPF 15 116 Deep Tan; flormar PERFECT COVERAGE FOUNDATION SUNSCREEN BROAD SPECTRUM SPF 15 119 Cocoa; flormar REBORN BB SUNSCREEN BROAD SPECTRUM SPF 30 CP01 Rose; flormar REBORN BB SUNSCREEN BROAD SPECTRUM SPF 30 CP04 Rich Beige; flormar REBORN BB SUNSCREEN BROAD SPECTRUM SPF 30 CP07 Nude Beige; flormar REBORN BB SUNSCREEN BROAD SPECTRUM SPF 30 CP10 Classic Beige; flormar REBORN BB SUNSCREEN BROAD SPECTRUM SPF 30 CP13 Nude Ivory; flormar REBORN BB SUNSCREEN BROAD SPECTRUM SPF 30 CP16 Beige; flormar REBORN BB SUNSCREEN BROAD SPECTRUM SPF 30 CP19 Natural Beige; flormar REBORN BB SUNSCREEN BROAD SPECTRUM SPF 30 CP21 Soft Beige; flormar REBORN BB SUNSCREEN BROAD SPECTRUM SPF 30 CP24 Medium; flormar REBORN BB SUNSCREEN BROAD SPECTRUM SPF 30 CP27 Capuccino; flormar REBORN BB SUNSCREEN BROAD SPECTRUM SPF 30 CP33 Chocolate; flormar REBORN DOUBLE RADIANCE PRIMER HIGHLIGHTER SUNSCREEN BROAD SPECTRUM SPF 10; flormar REBORN FOUNDATION SUNSCREEN BROAD SPECTRUM SPF 20 SF01 Rose; flormar REBORN FOUNDATION SUNSCREEN BROAD SPECTRUM SPF 20 SF04 Rich Beige; flormar REBORN FOUNDATION SUNSCREEN BROAD SPECTRUM SPF 20 SF07 Nude Beige; flormar REBORN FOUNDATION SUNSCREEN BROAD SPECTRUM SPF 20 SF10 Classic Beige; flormar REBORN FOUNDATION SUNSCREEN BROAD SPECTRUM SPF 20 SF13 Nude Ivory; flormar REBORN FOUNDATION SUNSCREEN BROAD SPECTRUM SPF 20 SF16 Beige; flormar REBORN FOUNDATION SUNSCREEN BROAD SPECTRUM SPF 20 SF19 Natural Beige; flormar REBORN FOUNDATION SUNSCREEN BROAD SPECTRUM SPF 20 SF21 Soft Beige; flormar REBORN FOUNDATION SUNSCREEN BROAD SPECTRUM SPF 20 SF24 Medium; flormar REBORN FOUNDATION SUNSCREEN BROAD SPECTRUM SPF 20 SF27 Capuccino; flormar REBORN FOUNDATION SUNSCREEN BROAD SPECTRUM SPF 20 SF30 Caramel; flormar REBORN FOUNDATION SUNSCREEN BROAD SPECTRUM SPF 20 SF33 Chocolate; flormar Soft Touch Foundation Sunscreen Broad Spectrum SPF 20 ST01 Light Pink; flormar Soft Touch Foundation Sunscreen Broad Spectrum SPF 20 ST02 Medium Pink; flormar Soft Touch Foundation Sunscreen Broad Spectrum SPF 20 ST03 Natural Pink; flormar Soft Touch Foundation Sunscreen Broad Spectrum SPF 20 ST04 Medium Beige; flormar Soft Touch Foundation Sunscreen Broad Spectrum SPF 20 ST05 Warm Beige; flormar Soft Touch Foundation Sunscreen Broad Spectrum SPF 20 ST06 Honey; flormar Soft Touch Foundation Sunscreen Broad Spectrum SPF 20 ST07 Caramel; flormar Soft Touch Foundation Sunscreen Broad Spectrum SPF 20 ST08 Bronze Beige; gesgep ONE DROP PERFECTION HEALTHY; gesgep ONE DROP PERFECTION LIGHT; gesgep ONE DROP PERFECTION TRUE; intense UV protection cream; intense UV protection emulsion; it Radiant CC Sun Base; jane Be Beautiful Multi-Benefit BB Broad Spectrum SPF 30 Dark; jane Be Beautiful Multi-Benefit BB Broad Spectrum SPF 30 Light; jane Be Beautiful Multi-Benefit BB Broad Spectrum SPF 30 Medium; keras day shield broad spectrum SPF 25; laura mercier tinted moisturizer Broad Spectrum SPF 20 Sunscreen Lightweight Flawless Coverage CAMEO; laura mercier tinted moisturizer Broad Spectrum SPF 20 Sunscreen Lightweight Flawless Coverage NATURAL; laura mercier tinted moisturizer Broad Spectrum SPF 20 Sunscreen Lightweight Flawless Coverage OCHRE; mally Lip Defender; mally Perfect Prep Poreless Primer; mally Poreless Perfection Glowing Foundation Fair; mally Poreless Perfection Glowing Foundation Light; mally Poreless Perfection Glowing Foundation Medium; mally Poreless Perfection Glowing Foundation Rich; mally Poreless Perfection Glowing Foundation Tan; mark. For Gooness Face Antioxidant Skin Moisturizing; mark. Lipclick SPF 15 Color Shine; matte full cover cushion C11; matte full cover cushion C13; matte full cover cushion C21; matte full cover cushion C43; matte full cover cushion N21; matte full cover cushion N23; matte full cover cushion N27; matte full cover cushion N31; matte full cover cushion W21; matte full cover cushion W23; matte full cover cushion W33; matte full cover cushion W34; matte full cover cushion W35; matte full cover cushion W37; matte full cover foundation C13; matte full cover foundation C21; matte full cover foundation C27; matte full cover foundation C31; matte full cover foundation C35; matte full cover foundation C43; matte full cover foundation N13; matte full cover foundation N21; matte full cover foundation N23; matte full cover foundation N27; matte full cover foundation N31; matte full cover foundation N33; matte full cover foundation N35; matte full cover foundation N41; matte full cover foundation W21; matte full cover foundation W23; matte full cover foundation W27; matte full cover foundation W31; matte full cover foundation W33; matte full cover foundation W35; matte full cover foundation W37; mesoestetic DERMATOLOGICAL SUN PROTECTION BROAD SPECTRUM; napoleon PERDIS AUTO PILOT BBB CREAM BROAD SPECTRUM SPF 30 LIGHT-MEDIUM; napoleon PERDIS AUTO PILOT BBB CREAM BROAD SPECTRUM SPF 30 MEDIUM-DARK; napoleon PERDIS FOUNDATION STICK BROAD SPECTRUM SPF 15 Look 1; napoleon PERDIS FOUNDATION STICK BROAD SPECTRUM SPF 15 Look 2; napoleon PERDIS FOUNDATION STICK BROAD SPECTRUM SPF 15 Look 2B; napoleon PERDIS FOUNDATION STICK BROAD SPECTRUM SPF 15 Look 3; napoleon PERDIS FOUNDATION STICK BROAD SPECTRUM SPF 15 Look 3B; napoleon PERDIS FOUNDATION STICK BROAD SPECTRUM SPF 15 Look 4; napoleon PERDIS FOUNDATION STICK BROAD SPECTRUM SPF 15 Look 5B; napoleon PERDIS SHEER GENIUS LIQUID FOUNDATION BROAD SPECTRUM SPF 20 Look 1; napoleon PERDIS SHEER GENIUS LIQUID FOUNDATION BROAD SPECTRUM SPF 20 Look 2; napoleon PERDIS SHEER GENIUS LIQUID FOUNDATION BROAD SPECTRUM SPF 20 Look 3; napoleon PERDIS SHEER GENIUS LIQUID FOUNDATION BROAD SPECTRUM SPF 20 Look 4; napoleon PERDIS SHEER GENIUS LIQUID FOUNDATION BROAD SPECTRUM SPF 20 Look 5; napoleon PERDIS SHEER GENIUS LIQUID FOUNDATION BROAD SPECTRUM SPF 20 Look 6; perfect truth cc broad spectrum SPF 30 sunscreen Ole Henriksen; plantogen Protective Moisturizer Broad Spectrum SPF; recover skin boosting moisturizer broad spectrum SPF 15 Jafra gold dynamics; retrospect day shield broad spectrum SPF 25; shu uemura UV under base mousse SPF 30 sunscreen; shu uemura UV underbase SPF 20 sunscreen; skin MD Natural; skin effects Brightening Day SPF 50; skin effects Firming Facial with Retinol Complex SPF 30; skin elements liquid veil foundation broad spectrum SPF 25 DEEP; skin elements liquid veil foundation broad spectrum SPF 25 GOLDEN MEDIUM; skin elements liquid veil foundation broad spectrum SPF 25 LIGHT; skin elements liquid veil foundation broad spectrum SPF 25 MEDIUM; skin elements liquid veil foundation broad spectrum SPF 25 PORCELAIN; skin elements liquid veil foundation broad spectrum SPF 25 TAN; stila CC color correcting broad-spectrum SPF 20 01 FAIR; stila CC color correcting broad-spectrum SPF 20 02 LIGHT; stila CC color correcting broad-spectrum SPF 20 03 TONE; stila CC color correcting broad-spectrum SPF 20 04 MEDIUM; stila CC color correcting broad-spectrum SPF 20 05 RICH MEDIUM; stila CC color correcting broad-spectrum SPF 20 06 WARM; stila CC color correcting broad-spectrum SPF 20 07 DARK; stila CC color correcting broad-spectrum SPF 20 08 TAN; superSHOCK Liquid Lip Shine; the Balm BalmShelter tinted moisturizer SPF 18 broad spectrum after dark; the Balm BalmShelter tinted moisturizer SPF 18 broad spectrum dark; the Balm BalmShelter tinted moisturizer SPF 18 broad spectrum lighter than light; the Balm BalmShelter tinted moisturizer SPF 18 broad spectrum medium dark; touch in SOL Advanced Real Moisture Li quid Foundation 21 Nude Beige; touch in SOL Advanced Real Moisture Li quid Foundation 23 Natural Beige; touch in SOL Dark Long Lasting Primer Base BRIGHT PURPLE; touch in SOL Dark Long Lasting Primer Base PURE PEACH; touch in SOL Dark Out Long Lasting Primer Base FRESH GREEN; touch in SOL Pang Pang Sun Cutting; zermat skin Broad Spectrum Sunscreen SPF 30; Écran Jour Creme Protectrice SPF 15 - Avene; Écran Solaire Fps 10

>  <SMILES>  (1) 
[H]\C(=C(\[H])C1=CC=C(OC)C=C1)C(=O)OCC(CC)CCCC

>  <SYNONYMS>  (1) 
ethylhexyl methoxycinnamate; ethylhexyl p-methoxycinnamate; octyl methoxycinnamate; parsol

$$$$
