
     RDKit          2D

 56 59  0  0  0  0  0  0  0  0999 V2000
    2.5066   -0.7353    0.0000 C   0  0  0  0  0  0  0  0  0  0  0  0
    3.1972   -0.3453    0.0000 C   0  0  0  0  0  0  0  0  0  0  0  0
    3.1972    0.4411    0.0000 C   0  0  0  0  0  0  0  0  0  0  0  0
    2.5130    0.8440    0.0000 C   0  0  0  0  0  0  0  0  0  0  0  0
    1.8289    0.4476    0.0000 C   0  0  0  0  0  0  0  0  0  0  0  0
    1.8224   -0.3388    0.0000 C   0  0  0  0  0  0  0  0  0  0  0  0
    1.1446    0.8440    0.0000 C   0  0  0  0  0  0  0  0  0  0  0  0
    1.1446    1.6305    0.0000 C   0  0  0  0  0  0  0  0  0  0  0  0
    0.4604    0.4540    0.0000 C   0  0  0  0  0  0  0  0  0  0  0  0
    1.8289    2.0270    0.0000 O   0  0  0  0  0  0  0  0  0  0  0  0
    0.4604   -0.3324    0.0000 O   0  0  0  0  0  0  0  0  0  0  0  0
   -0.2174    0.8440    0.0000 O   0  0  0  0  0  0  0  0  0  0  0  0
   -2.3915    0.7353    0.0000 C   0  0  0  0  0  0  0  0  0  0  0  0
   -1.5539   -0.9399    0.0000 C   0  0  0  0  0  0  0  0  0  0  0  0
   -1.5858    0.9335    0.0000 C   0  0  0  0  0  0  0  0  0  0  0  0
   -0.9143   -0.4092    0.0000 C   0  0  0  0  0  0  0  0  0  0  0  0
   -0.9335    0.4284    0.0000 C   0  0  0  0  0  0  0  0  0  0  0  0
   -2.3723   -0.7673    0.0000 C   0  0  0  0  0  0  0  0  0  0  0  0
   -2.7432   -0.0256    0.0000 C   0  0  0  0  0  0  0  0  0  0  0  0
   -3.1972   -0.7161    0.0000 O   0  0  0  0  0  0  0  0  0  0  0  0
   -1.5347    0.1214    0.0000 N   0  0  0  0  0  0  0  0  0  0  0  0
   -2.1165   -0.2045    0.0000 C   0  0  0  0  0  0  0  0  0  0  0  0
   -0.7098    0.1279    0.0000 C   0  0  0  0  0  0  0  0  0  0  0  0
   -0.2941   -0.5882    0.0000 C   0  0  0  0  0  0  0  0  0  0  0  0
   -0.7098   -1.3108    0.0000 C   0  0  0  0  0  0  0  0  0  0  0  0
   -0.2877   -2.0270    0.0000 C   0  0  0  0  0  0  0  0  0  0  0  0
    0.0000    0.0000    0.0000 H   0  0  0  0  0  0  0  0  0  0  0  0
    0.0000    0.0000    0.0000 H   0  0  0  0  0  0  0  0  0  0  0  0
    0.0000    0.0000    0.0000 H   0  0  0  0  0  0  0  0  0  0  0  0
    0.0000    0.0000    0.0000 H   0  0  0  0  0  0  0  0  0  0  0  0
    0.0000    0.0000    0.0000 H   0  0  0  0  0  0  0  0  0  0  0  0
    0.0000    0.0000    0.0000 H   0  0  0  0  0  0  0  0  0  0  0  0
    0.0000    0.0000    0.0000 H   0  0  0  0  0  0  0  0  0  0  0  0
    0.0000    0.0000    0.0000 H   0  0  0  0  0  0  0  0  0  0  0  0
    0.0000    0.0000    0.0000 H   0  0  0  0  0  0  0  0  0  0  0  0
    0.0000    0.0000    0.0000 H   0  0  0  0  0  0  0  0  0  0  0  0
    0.0000    0.0000    0.0000 H   0  0  0  0  0  0  0  0  0  0  0  0
    0.0000    0.0000    0.0000 H   0  0  0  0  0  0  0  0  0  0  0  0
    0.0000    0.0000    0.0000 H   0  0  0  0  0  0  0  0  0  0  0  0
    0.0000    0.0000    0.0000 H   0  0  0  0  0  0  0  0  0  0  0  0
    0.0000    0.0000    0.0000 H   0  0  0  0  0  0  0  0  0  0  0  0
    0.0000    0.0000    0.0000 H   0  0  0  0  0  0  0  0  0  0  0  0
    0.0000    0.0000    0.0000 H   0  0  0  0  0  0  0  0  0  0  0  0
    0.0000    0.0000    0.0000 H   0  0  0  0  0  0  0  0  0  0  0  0
    0.0000    0.0000    0.0000 H   0  0  0  0  0  0  0  0  0  0  0  0
    0.0000    0.0000    0.0000 H   0  0  0  0  0  0  0  0  0  0  0  0
    0.0000    0.0000    0.0000 H   0  0  0  0  0  0  0  0  0  0  0  0
    0.0000    0.0000    0.0000 H   0  0  0  0  0  0  0  0  0  0  0  0
    0.0000    0.0000    0.0000 H   0  0  0  0  0  0  0  0  0  0  0  0
    0.0000    0.0000    0.0000 H   0  0  0  0  0  0  0  0  0  0  0  0
    0.0000    0.0000    0.0000 H   0  0  0  0  0  0  0  0  0  0  0  0
    0.0000    0.0000    0.0000 H   0  0  0  0  0  0  0  0  0  0  0  0
    0.0000    0.0000    0.0000 H   0  0  0  0  0  0  0  0  0  0  0  0
    0.0000    0.0000    0.0000 H   0  0  0  0  0  0  0  0  0  0  0  0
    0.0000    0.0000    0.0000 H   0  0  0  0  0  0  0  0  0  0  0  0
    0.0000    0.0000    0.0000 H   0  0  0  0  0  0  0  0  0  0  0  0
  1  6  2  0
  1  2  1  0
  2  3  2  0
  3  4  1  0
  4  5  2  0
  7  5  1  6
  5  6  1  0
  7  9  1  0
  7  8  1  0
  8 10  1  0
  9 12  1  0
  9 11  2  0
 17 12  1  6
 13 19  1  0
 13 15  1  0
 13 21  1  0
 14 18  1  0
 14 16  1  0
 14 21  1  0
 15 17  1  0
 16 17  1  0
 18 19  1  0
 18 20  1  0
 19 20  1  0
 21 22  1  0
 21 23  1  0
 23 24  1  0
 24 25  1  0
 25 26  1  0
  1 27  1  0
  2 28  1  0
  3 29  1  0
  4 30  1  0
  6 31  1  0
  7 32  1  0
  8 33  1  0
  8 34  1  0
 10 35  1  0
 13 36  1  1
 14 37  1  1
 15 38  1  0
 15 39  1  0
 16 40  1  0
 16 41  1  0
 17 42  1  0
 18 43  1  6
 19 44  1  6
 22 45  1  0
 22 46  1  0
 22 47  1  0
 23 48  1  0
 23 49  1  0
 24 50  1  0
 24 51  1  0
 25 52  1  0
 25 53  1  0
 26 54  1  0
 26 55  1  0
 26 56  1  0
M  CHG  1  21   1
M  END
>  <ALOGPS_LOGP>  (1) 
0.79

>  <ALOGPS_LOGS>  (1) 
-5.29

>  <ALOGPS_SOLUBILITY>  (1) 
2.01e-03 g/l

>  <DATABASE_ID>  (1) 
DB09300

>  <DATABASE_NAME>  (1) 
drugbank

>  <DRUGBANK_ID>  (1) 
DB09300

>  <DRUG_GROUPS>  (1) 
approved; vet_approved

>  <EXACT_MASS>  (1) 
360.21693487

>  <FORMULA>  (1) 
C21H30NO4

>  <GENERIC_NAME>  (1) 
Butylscopolamine

>  <INCHI_IDENTIFIER>  (1) 
InChI=1S/C21H30NO4/c1-3-4-10-22(2)17-11-15(12-18(22)20-19(17)26-20)25-21(24)16(13-23)14-8-6-5-7-9-14/h5-9,15-20,23H,3-4,10-13H2,1-2H3/q+1/t15-,16-,17-,18+,19-,20+,22?/m1/s1

>  <INCHI_KEY>  (1) 
YBCNXCRZPWQOBR-WVHCHWADSA-N

>  <JCHEM_ACCEPTOR_COUNT>  (1) 
3

>  <JCHEM_ATOM_COUNT>  (1) 
56

>  <JCHEM_AVERAGE_POLARIZABILITY>  (1) 
39.824565510192556

>  <JCHEM_BIOAVAILABILITY>  (1) 
1

>  <JCHEM_DONOR_COUNT>  (1) 
1

>  <JCHEM_FORMAL_CHARGE>  (1) 
1

>  <JCHEM_GHOSE_FILTER>  (1) 
0

>  <JCHEM_IUPAC>  (1) 
(1R,2R,4S,5S,7R)-9-butyl-7-{[(2S)-3-hydroxy-2-phenylpropanoyl]oxy}-9-methyl-3-oxa-9-azatricyclo[3.3.1.0^{2,4}]nonan-9-ium

>  <JCHEM_LOGP>  (1) 
-1.9434853068050792

>  <JCHEM_MDDR_LIKE_RULE>  (1) 
1

>  <JCHEM_NUMBER_OF_RINGS>  (1) 
4

>  <JCHEM_PHYSIOLOGICAL_CHARGE>  (1) 
1

>  <JCHEM_PKA_STRONGEST_ACIDIC>  (1) 
15.145739794476043

>  <JCHEM_PKA_STRONGEST_BASIC>  (1) 
-2.7350534138961775

>  <JCHEM_POLAR_SURFACE_AREA>  (1) 
59.06

>  <JCHEM_REFRACTIVITY>  (1) 
109.50849999999998

>  <JCHEM_ROTATABLE_BOND_COUNT>  (1) 
8

>  <JCHEM_RULE_OF_FIVE>  (1) 
1

>  <JCHEM_TRADITIONAL_IUPAC>  (1) 
(1R,2R,4S,5S,7R)-9-butyl-7-{[(2S)-3-hydroxy-2-phenylpropanoyl]oxy}-9-methyl-3-oxa-9-azatricyclo[3.3.1.0^{2,4}]nonan-9-ium

>  <JCHEM_VEBER_RULE>  (1) 
0

>  <MOLECULAR_WEIGHT>  (1) 
360.473

>  <PRODUCTS>  (1) 
Buscopan; Buscopan Sup 10mg; Hyoscine Butylbromide Injection Sandoz Standard

>  <SALTS>  (1) 
Butylscopolamine bromide

>  <SECONDARY_ACCESSION_NUMBERS>  (1) 
DB11535

>  <SMILES>  (1) 
CCCC[N+]1(C)[C@H]2C[C@@H](C[C@@H]1[C@H]1O[C@@H]21)OC(=O)[C@H](CO)C1=CC=CC=C1

>  <SYNONYMS>  (1) 
N-butylscopolammonium; N-butylscopolammonium cation; N-butylscopolammonium ion

$$$$
