
     RDKit          2D

 60 60  0  0  0  0  0  0  0  0999 V2000
    3.5723   -4.5375    0.0000 C   0  0  0  0  0  0  0  0  0  0  0  0
    7.1447   -4.9500    0.0000 C   0  0  0  0  0  0  0  0  0  0  0  0
    7.1447   -5.7750    0.0000 C   0  0  0  0  0  0  0  0  0  0  0  0
    0.7144   -6.1875    0.0000 C   0  0  0  0  0  0  0  0  0  0  0  0
    0.0000   -5.7750    0.0000 C   0  0  0  0  0  0  0  0  0  0  0  0
    1.4289   -5.7750    0.0000 C   0  0  0  0  0  0  0  0  0  0  0  0
   -0.7144   -6.1875    0.0000 C   0  0  0  0  0  0  0  0  0  0  0  0
    2.1434   -6.1875    0.0000 C   0  0  0  0  0  0  0  0  0  0  0  0
   -1.4289   -5.7750    0.0000 C   0  0  0  0  0  0  0  0  0  0  0  0
    2.8578   -5.7750    0.0000 C   0  0  0  0  0  0  0  0  0  0  0  0
   -2.1434   -6.1875    0.0000 C   0  0  0  0  0  0  0  0  0  0  0  0
    3.5723   -6.1875    0.0000 C   0  0  0  0  0  0  0  0  0  0  0  0
   -2.8578   -5.7750    0.0000 C   0  0  0  0  0  0  0  0  0  0  0  0
    4.2868   -4.9500    0.0000 C   0  0  0  0  0  0  0  0  0  0  0  0
    4.2868   -5.7750    0.0000 C   0  0  0  0  0  0  0  0  0  0  0  0
    5.0012   -4.5375    0.0000 C   0  0  0  0  0  0  0  0  0  0  0  0
    5.0012   -6.1875    0.0000 C   0  0  0  0  0  0  0  0  0  0  0  0
    5.7157   -4.9500    0.0000 C   0  0  0  0  0  0  0  0  0  0  0  0
    5.7157   -5.7750    0.0000 C   0  0  0  0  0  0  0  0  0  0  0  0
   -3.5723   -6.1875    0.0000 C   0  0  0  0  0  0  0  0  0  0  0  0
    5.0012   -3.7125    0.0000 O   0  0  0  0  0  0  0  0  0  0  0  0
    5.0012   -7.0125    0.0000 O   0  0  0  0  0  0  0  0  0  0  0  0
    6.4302   -4.5375    0.0000 O   0  0  0  0  0  0  0  0  0  0  0  0
    6.4302   -6.1875    0.0000 O   0  0  0  0  0  0  0  0  0  0  0  0
   -4.2868   -5.7750    0.0000 C   0  0  0  0  0  0  0  0  0  0  0  0
   -5.0012   -6.1875    0.0000 O   0  0  0  0  0  0  0  0  0  0  0  0
    0.0000    0.0000    0.0000 H   0  0  0  0  0  0  0  0  0  0  0  0
    0.0000    0.0000    0.0000 H   0  0  0  0  0  0  0  0  0  0  0  0
    0.0000    0.0000    0.0000 H   0  0  0  0  0  0  0  0  0  0  0  0
    0.0000    0.0000    0.0000 H   0  0  0  0  0  0  0  0  0  0  0  0
    0.0000    0.0000    0.0000 H   0  0  0  0  0  0  0  0  0  0  0  0
    0.0000    0.0000    0.0000 H   0  0  0  0  0  0  0  0  0  0  0  0
    0.0000    0.0000    0.0000 H   0  0  0  0  0  0  0  0  0  0  0  0
    0.0000    0.0000    0.0000 H   0  0  0  0  0  0  0  0  0  0  0  0
    0.0000    0.0000    0.0000 H   0  0  0  0  0  0  0  0  0  0  0  0
    0.0000    0.0000    0.0000 H   0  0  0  0  0  0  0  0  0  0  0  0
    0.0000    0.0000    0.0000 H   0  0  0  0  0  0  0  0  0  0  0  0
    0.0000    0.0000    0.0000 H   0  0  0  0  0  0  0  0  0  0  0  0
    0.0000    0.0000    0.0000 H   0  0  0  0  0  0  0  0  0  0  0  0
    0.0000    0.0000    0.0000 H   0  0  0  0  0  0  0  0  0  0  0  0
    0.0000    0.0000    0.0000 H   0  0  0  0  0  0  0  0  0  0  0  0
    0.0000    0.0000    0.0000 H   0  0  0  0  0  0  0  0  0  0  0  0
    0.0000    0.0000    0.0000 H   0  0  0  0  0  0  0  0  0  0  0  0
    0.0000    0.0000    0.0000 H   0  0  0  0  0  0  0  0  0  0  0  0
    0.0000    0.0000    0.0000 H   0  0  0  0  0  0  0  0  0  0  0  0
    0.0000    0.0000    0.0000 H   0  0  0  0  0  0  0  0  0  0  0  0
    0.0000    0.0000    0.0000 H   0  0  0  0  0  0  0  0  0  0  0  0
    0.0000    0.0000    0.0000 H   0  0  0  0  0  0  0  0  0  0  0  0
    0.0000    0.0000    0.0000 H   0  0  0  0  0  0  0  0  0  0  0  0
    0.0000    0.0000    0.0000 H   0  0  0  0  0  0  0  0  0  0  0  0
    0.0000    0.0000    0.0000 H   0  0  0  0  0  0  0  0  0  0  0  0
    0.0000    0.0000    0.0000 H   0  0  0  0  0  0  0  0  0  0  0  0
    0.0000    0.0000    0.0000 H   0  0  0  0  0  0  0  0  0  0  0  0
    0.0000    0.0000    0.0000 H   0  0  0  0  0  0  0  0  0  0  0  0
    0.0000    0.0000    0.0000 H   0  0  0  0  0  0  0  0  0  0  0  0
    0.0000    0.0000    0.0000 H   0  0  0  0  0  0  0  0  0  0  0  0
    0.0000    0.0000    0.0000 H   0  0  0  0  0  0  0  0  0  0  0  0
    0.0000    0.0000    0.0000 H   0  0  0  0  0  0  0  0  0  0  0  0
    0.0000    0.0000    0.0000 H   0  0  0  0  0  0  0  0  0  0  0  0
    0.0000    0.0000    0.0000 H   0  0  0  0  0  0  0  0  0  0  0  0
  5  4  1  0
  6  4  1  0
  7  5  1  0
  8  6  1  0
  9  7  1  0
 10  8  1  0
 11  9  1  0
 12 10  1  0
 13 11  1  0
 14  1  1  0
 15 12  1  0
 15 14  2  0
 16 14  1  0
 17 15  1  0
 18 16  1  0
 19 17  1  0
 19 18  2  0
 21 16  2  0
 22 17  2  0
 23  2  1  0
 23 18  1  0
 24  3  1  0
 24 19  1  0
 20 13  1  0
 20 25  1  0
 25 26  1  0
  1 27  1  0
  1 28  1  0
  1 29  1  0
  2 30  1  0
  2 31  1  0
  2 32  1  0
  3 33  1  0
  3 34  1  0
  3 35  1  0
  4 36  1  0
  4 37  1  0
  5 38  1  0
  5 39  1  0
  6 40  1  0
  6 41  1  0
  7 42  1  0
  7 43  1  0
  8 44  1  0
  8 45  1  0
  9 46  1  0
  9 47  1  0
 10 48  1  0
 10 49  1  0
 11 50  1  0
 11 51  1  0
 12 52  1  0
 12 53  1  0
 13 54  1  0
 13 55  1  0
 20 56  1  0
 20 57  1  0
 25 58  1  0
 25 59  1  0
 26 60  1  0
M  END
>  <ALOGPS_LOGP>  (1) 
4.50

>  <ALOGPS_LOGS>  (1) 
-4.69

>  <ALOGPS_SOLUBILITY>  (1) 
7.47e-03 g/l

>  <DATABASE_ID>  (1) 
DB09081

>  <DATABASE_NAME>  (1) 
drugbank

>  <DRUGBANK_ID>  (1) 
DB09081

>  <DRUG_GROUPS>  (1) 
approved; investigational

>  <EXACT_MASS>  (1) 
366.240624195

>  <FORMULA>  (1) 
C21H34O5

>  <GENERIC_NAME>  (1) 
Idebenone

>  <INCHI_IDENTIFIER>  (1) 
InChI=1S/C21H34O5/c1-16-17(19(24)21(26-3)20(25-2)18(16)23)14-12-10-8-6-4-5-7-9-11-13-15-22/h22H,4-15H2,1-3H3

>  <INCHI_KEY>  (1) 
VMHWZDULLBLUMS-UHFFFAOYSA-N

>  <JCHEM_ACCEPTOR_COUNT>  (1) 
5

>  <JCHEM_ATOM_COUNT>  (1) 
60

>  <JCHEM_AVERAGE_POLARIZABILITY>  (1) 
43.870871925653496

>  <JCHEM_BIOAVAILABILITY>  (1) 
1

>  <JCHEM_DONOR_COUNT>  (1) 
1

>  <JCHEM_FORMAL_CHARGE>  (1) 
0

>  <JCHEM_GHOSE_FILTER>  (1) 
1

>  <JCHEM_IUPAC>  (1) 
2-(12-hydroxydodecyl)-5,6-dimethoxy-3-methylcyclohexa-2,5-diene-1,4-dione

>  <JCHEM_LOGP>  (1) 
4.457130904333333

>  <JCHEM_MDDR_LIKE_RULE>  (1) 
0

>  <JCHEM_NUMBER_OF_RINGS>  (1) 
1

>  <JCHEM_PHYSIOLOGICAL_CHARGE>  (1) 
0

>  <JCHEM_PKA_STRONGEST_ACIDIC>  (1) 
16.84394282199214

>  <JCHEM_PKA_STRONGEST_BASIC>  (1) 
-1.9914450153462844

>  <JCHEM_POLAR_SURFACE_AREA>  (1) 
72.83000000000001

>  <JCHEM_REFRACTIVITY>  (1) 
105.71989999999995

>  <JCHEM_ROTATABLE_BOND_COUNT>  (1) 
14

>  <JCHEM_RULE_OF_FIVE>  (1) 
1

>  <JCHEM_TRADITIONAL_IUPAC>  (1) 
2-(12-hydroxydodecyl)-5,6-dimethoxy-3-methylcyclohexa-2,5-diene-1,4-dione

>  <JCHEM_VEBER_RULE>  (1) 
0

>  <MOLECULAR_WEIGHT>  (1) 
366.498

>  <PRODUCTS>  (1) 
Catena; Raxone

>  <SMILES>  (1) 
COC1=C(OC)C(=O)C(CCCCCCCCCCCCO)=C(C)C1=O

>  <SYNONYMS>  (1) 
2-(10-hydroxydecyl)-5,6-dimethoxy-3-methyl-1,4-benzoquinone; 2-(10-hydroxydecyl)-5,6-dimethoxy-3-methyl-p-benzoquinone; 2-(10-hydroxydecyl)-5,6-dimethoxy-3-methylcyclohexa-2,5-diene-1,4-dione; 2,3-dimethoxy-5-methyl-6-(10'-hydroxydecyl)-1,4-benzoquinone; 6-(10-hydroxydecyl)-2,3-dimethoxy-5-methyl-1,4-benzoquinone; 6-(10-hydroxydecyl)-2,3-dimethoxy-5-methyl-p-benzoquinone; idébénone

$$$$
