
     RDKit          2D

 71 53  0  0  0  0  0  0  0  0999 V2000
   -1.7257   -4.5880    0.0000 Fe  0  0  0  0  0  0  0  0  0  0  0  0
   -0.2967   -4.5880    0.0000 Fe  0  0  0  0  0  0  0  0  0  0  0  0
    1.1322   -4.5880    0.0000 Fe  0  0  0  0  0  0  0  0  0  0  0  0
    2.5612   -4.5880    0.0000 Fe  0  0  0  0  0  0  0  0  0  0  0  0
    3.9901   -4.5880    0.0000 Fe  0  0  0  0  0  0  0  0  0  0  0  0
    5.4191   -4.5880    0.0000 Na  0  0  0  0  0  0  0  0  0  0  0  0
    4.7047   -5.8255    0.0000 Na  0  0  0  0  0  0  0  0  0  0  0  0
    1.9856    1.6143    0.0000 O   0  0  0  0  0  0  0  0  0  0  0  0
    0.4641    1.0304    0.0000 O   0  0  0  0  0  0  0  0  0  0  0  0
    1.1786   -0.2071    0.0000 O   0  0  0  0  0  0  0  0  0  0  0  0
   -0.0544    2.2436    0.0000 O   0  0  0  0  0  0  0  0  0  0  0  0
    1.1466    3.5774    0.0000 O   0  0  0  0  0  0  0  0  0  0  0  0
   -0.9648    0.2053    0.0000 O   0  0  0  0  0  0  0  0  0  0  0  0
   -0.9648   -1.4446    0.0000 O   0  0  0  0  0  0  0  0  0  0  0  0
    0.4641   -2.2696    0.0000 O   0  0  0  0  0  0  0  0  0  0  0  0
    2.1347    0.3809    0.0000 O   0  0  0  0  0  0  0  0  0  0  0  0
    3.5008    2.4348    0.0000 O   0  0  0  0  0  0  0  0  0  0  0  0
    1.8931   -2.2696    0.0000 O   0  0  0  0  0  0  0  0  0  0  0  0
   -4.9762   -1.1591    0.0000 O   0  0  0  0  0  0  0  0  0  0  0  0
   -4.9762    0.9034    0.0000 O   0  0  0  0  0  0  0  0  0  0  0  0
    1.2679    5.5697    0.0000 O   0  0  0  0  0  0  0  0  0  0  0  0
   -2.4402   -4.1755    0.0000 O   0  0  0  0  0  0  0  0  0  0  0  0
   -1.0111   -4.1755    0.0000 O   0  0  0  0  0  0  0  0  0  0  0  0
   -0.2967   -5.4130    0.0000 O   0  0  0  0  0  0  0  0  0  0  0  0
    0.4177   -4.1755    0.0000 O   0  0  0  0  0  0  0  0  0  0  0  0
    1.8467   -4.1755    0.0000 O   0  0  0  0  0  0  0  0  0  0  0  0
    1.1322   -5.4130    0.0000 O   0  0  0  0  0  0  0  0  0  0  0  0
    3.2756   -4.1755    0.0000 O   0  0  0  0  0  0  0  0  0  0  0  0
    4.7047   -4.1755    0.0000 O   0  0  0  0  0  0  0  0  0  0  0  0
    3.9901   -5.4130    0.0000 O   0  0  0  0  0  0  0  0  0  0  0  0
    1.1786    1.4429    0.0000 C   0  0  0  0  0  0  0  0  0  0  0  0
    0.7661    2.1573    0.0000 C   0  0  0  0  0  0  0  0  0  0  0  0
    1.3182    2.7704    0.0000 C   0  0  0  0  0  0  0  0  0  0  0  0
    2.0718    2.4348    0.0000 C   0  0  0  0  0  0  0  0  0  0  0  0
    0.4641    0.2053    0.0000 C   0  0  0  0  0  0  0  0  0  0  0  0
   -0.2503   -0.2071    0.0000 C   0  0  0  0  0  0  0  0  0  0  0  0
   -0.2503   -1.0321    0.0000 C   0  0  0  0  0  0  0  0  0  0  0  0
    0.4641   -1.4446    0.0000 C   0  0  0  0  0  0  0  0  0  0  0  0
    1.1786   -1.0321    0.0000 C   0  0  0  0  0  0  0  0  0  0  0  0
    1.3502    0.6358    0.0000 C   0  0  0  0  0  0  0  0  0  0  0  0
    2.7863    2.8473    0.0000 C   0  0  0  0  0  0  0  0  0  0  0  0
    1.8931   -1.4446    0.0000 C   0  0  0  0  0  0  0  0  0  0  0  0
    0.0000    0.0000    0.0000 H   0  0  0  0  0  0  0  0  0  0  0  0
    0.0000    0.0000    0.0000 H   0  0  0  0  0  0  0  0  0  0  0  0
    0.0000    0.0000    0.0000 H   0  0  0  0  0  0  0  0  0  0  0  0
    0.0000    0.0000    0.0000 H   0  0  0  0  0  0  0  0  0  0  0  0
    0.0000    0.0000    0.0000 H   0  0  0  0  0  0  0  0  0  0  0  0
    0.0000    0.0000    0.0000 H   0  0  0  0  0  0  0  0  0  0  0  0
    0.0000    0.0000    0.0000 H   0  0  0  0  0  0  0  0  0  0  0  0
    0.0000    0.0000    0.0000 H   0  0  0  0  0  0  0  0  0  0  0  0
    0.0000    0.0000    0.0000 H   0  0  0  0  0  0  0  0  0  0  0  0
    0.0000    0.0000    0.0000 H   0  0  0  0  0  0  0  0  0  0  0  0
    0.0000    0.0000    0.0000 H   0  0  0  0  0  0  0  0  0  0  0  0
    0.0000    0.0000    0.0000 H   0  0  0  0  0  0  0  0  0  0  0  0
    0.0000    0.0000    0.0000 H   0  0  0  0  0  0  0  0  0  0  0  0
    0.0000    0.0000    0.0000 H   0  0  0  0  0  0  0  0  0  0  0  0
    0.0000    0.0000    0.0000 H   0  0  0  0  0  0  0  0  0  0  0  0
    0.0000    0.0000    0.0000 H   0  0  0  0  0  0  0  0  0  0  0  0
    0.0000    0.0000    0.0000 H   0  0  0  0  0  0  0  0  0  0  0  0
    0.0000    0.0000    0.0000 H   0  0  0  0  0  0  0  0  0  0  0  0
    0.0000    0.0000    0.0000 H   0  0  0  0  0  0  0  0  0  0  0  0
    0.0000    0.0000    0.0000 H   0  0  0  0  0  0  0  0  0  0  0  0
    0.0000    0.0000    0.0000 H   0  0  0  0  0  0  0  0  0  0  0  0
    0.0000    0.0000    0.0000 H   0  0  0  0  0  0  0  0  0  0  0  0
    0.0000    0.0000    0.0000 H   0  0  0  0  0  0  0  0  0  0  0  0
    0.0000    0.0000    0.0000 H   0  0  0  0  0  0  0  0  0  0  0  0
    0.0000    0.0000    0.0000 H   0  0  0  0  0  0  0  0  0  0  0  0
    0.0000    0.0000    0.0000 H   0  0  0  0  0  0  0  0  0  0  0  0
    0.0000    0.0000    0.0000 H   0  0  0  0  0  0  0  0  0  0  0  0
    0.0000    0.0000    0.0000 H   0  0  0  0  0  0  0  0  0  0  0  0
    0.0000    0.0000    0.0000 H   0  0  0  0  0  0  0  0  0  0  0  0
  8 31  1  0
  8 34  1  0
 31  9  1  1
 35  9  1  1
 10 35  1  0
 10 39  1  0
 32 11  1  1
 33 12  1  1
 36 13  1  1
 37 14  1  1
 38 15  1  6
 16 40  1  0
 17 41  1  0
 18 42  1  0
 31 32  1  0
 31 40  1  0
 32 33  1  0
 33 34  1  0
 34 41  1  6
 35 36  1  0
 36 37  1  0
 37 38  1  0
 38 39  1  0
 39 42  1  1
 11 43  1  0
 12 44  1  0
 13 45  1  0
 14 46  1  0
 15 47  1  0
 16 48  1  0
 17 49  1  0
 18 50  1  0
 19 51  1  0
 19 52  1  0
 20 53  1  0
 20 54  1  0
 21 55  1  0
 21 56  1  0
 22 57  1  0
 32 58  1  0
 33 59  1  0
 34 60  1  0
 35 61  1  0
 36 62  1  0
 37 63  1  0
 38 64  1  0
 39 65  1  0
 40 66  1  0
 40 67  1  0
 41 68  1  0
 41 69  1  0
 42 70  1  0
 42 71  1  0
M  CHG  8   1   3   2   3   3   3   4   3   5   3   6   1   7   1  22  -1
M  CHG  8  23  -2  24  -2  25  -2  26  -2  27  -2  28  -2  29  -2  30  -2
M  END
>  <ALOGPS_LOGP>  (1) 
1.99

>  <ALOGPS_LOGS>  (1) 
-1.75

>  <ALOGPS_SOLUBILITY>  (1) 
9.52e+00 g/l

>  <DATABASE_ID>  (1) 
DB09146

>  <DATABASE_NAME>  (1) 
drugbank

>  <DRUGBANK_ID>  (1) 
DB09146

>  <DRUG_GROUPS>  (1) 
approved

>  <EXACT_MASS>  (1) 
866.764181

>  <FORMULA>  (1) 
C12H29Fe5Na2O23

>  <GENERIC_NAME>  (1) 
Iron saccharate

>  <INCHI_IDENTIFIER>  (1) 
InChI=1S/C12H22O11.5Fe.2Na.4H2O.8O/c13-1-4-6(16)8(18)9(19)11(21-4)23-12(3-15)10(20)7(17)5(2-14)22-12;;;;;;;;;;;;;;;;;;;/h4-11,13-20H,1-3H2;;;;;;;;4*1H2;;;;;;;;/q;5*+3;2*+1;;;;;8*-2/p-1/t4-,5-,6-,7-,8+,9-,10+,11-,12+;;;;;;;;;;;;;;;;;;;/m1.................../s1

>  <INCHI_KEY>  (1) 
FWZTTZUKDVJDCM-CEJAUHOTSA-M

>  <JCHEM_ACCEPTOR_COUNT>  (1) 
11

>  <JCHEM_ATOM_COUNT>  (1) 
71

>  <JCHEM_AVERAGE_POLARIZABILITY>  (1) 
30.96850296302607

>  <JCHEM_BIOAVAILABILITY>  (1) 
0

>  <JCHEM_DONOR_COUNT>  (1) 
8

>  <JCHEM_FORMAL_CHARGE>  (1) 
0

>  <JCHEM_GHOSE_FILTER>  (1) 
0

>  <JCHEM_IUPAC>  (1) 
pentairon(3+) ion disodium (2R,3R,4S,5S,6R)-2-{[(2S,3S,4S,5R)-3,4-dihydroxy-2,5-bis(hydroxymethyl)oxolan-2-yl]oxy}-6-(hydroxymethyl)oxane-3,4,5-triol trihydrate hydroxide octaoxidandiide

>  <JCHEM_LOGP>  (1) 
-4.528834963666666

>  <JCHEM_MDDR_LIKE_RULE>  (1) 
0

>  <JCHEM_NUMBER_OF_RINGS>  (1) 
2

>  <JCHEM_PHYSIOLOGICAL_CHARGE>  (1) 
0

>  <JCHEM_PKA>  (1) 
12.393795156229878

>  <JCHEM_PKA_STRONGEST_ACIDIC>  (1) 
11.841279964942517

>  <JCHEM_PKA_STRONGEST_BASIC>  (1) 
-2.9810849127905703

>  <JCHEM_POLAR_SURFACE_AREA>  (1) 
189.52999999999997

>  <JCHEM_REFRACTIVITY>  (1) 
68.7741

>  <JCHEM_ROTATABLE_BOND_COUNT>  (1) 
5

>  <JCHEM_RULE_OF_FIVE>  (1) 
0

>  <JCHEM_TRADITIONAL_IUPAC>  (1) 
pentairon(3+) ion disodium sucrose trihydrate hydroxide octaoxidandiide

>  <JCHEM_VEBER_RULE>  (1) 
0

>  <MOLECULAR_WEIGHT>  (1) 
866.546

>  <PRODUCTS>  (1) 
HemeNatal OB; Hemetab; Myferon 150; Myferon 150 Forte; PNV-First; PreferaOB; PreferaOB ONE; VP-HEME One; VP-heme OB; Velphoro; Venofer

>  <SECONDARY_ACCESSION_NUMBERS>  (1) 
DB06790

>  <SMILES>  (1) 
O.O.O.[OH-].[O--].[O--].[O--].[O--].[O--].[O--].[O--].[O--].[Na+].[Na+].[Fe+3].[Fe+3].[Fe+3].[Fe+3].[Fe+3].OC[C@H]1O[C@@](CO)(O[C@H]2O[C@H](CO)[C@@H](O)[C@H](O)[C@H]2O)[C@@H](O)[C@@H]1O

>  <SYNONYMS>  (1) 
Ferric hydroxide sucrose complex; Iron oxide saccharated; Iron sucrose; Iron sucrose complex; Iron sugar; Iron(III) hydroxide sucrose complex; Saccharated ferric oxide; Saccharated iron; Saccharated iron oxide; Sucroferric oxyhydroxide

$$$$
