
     RDKit          2D

 44 46  0  0  0  0  0  0  0  0999 V2000
    5.7157    2.4750    0.0000 C   0  0  0  0  0  0  0  0  0  0  0  0
    4.2868    0.0000    0.0000 C   0  0  0  0  0  0  0  0  0  0  0  0
    2.8578   -1.6500    0.0000 C   0  0  0  0  0  0  0  0  0  0  0  0
    3.5723   -1.2375    0.0000 C   0  0  0  0  0  0  0  0  0  0  0  0
    2.1434   -1.2375    0.0000 C   0  0  0  0  0  0  0  0  0  0  0  0
    3.5723   -0.4125    0.0000 C   0  0  0  0  0  0  0  0  0  0  0  0
    4.2868    2.4750    0.0000 C   0  0  0  0  0  0  0  0  0  0  0  0
    3.5723    2.0625    0.0000 C   0  0  0  0  0  0  0  0  0  0  0  0
    0.0000    0.0000    0.0000 C   0  0  0  0  0  0  0  0  0  0  0  0
    0.7144    1.2375    0.0000 C   0  0  0  0  0  0  0  0  0  0  0  0
    0.7144   -0.4125    0.0000 C   0  0  0  0  0  0  0  0  0  0  0  0
    1.4289    0.8250    0.0000 C   0  0  0  0  0  0  0  0  0  0  0  0
    5.0012    1.2375    0.0000 C   0  0  0  0  0  0  0  0  0  0  0  0
    5.0012    2.0625    0.0000 C   0  0  0  0  0  0  0  0  0  0  0  0
    4.2868    0.8250    0.0000 C   0  0  0  0  0  0  0  0  0  0  0  0
    2.1434   -0.4125    0.0000 C   0  0  0  0  0  0  0  0  0  0  0  0
    3.5723    1.2375    0.0000 C   0  0  0  0  0  0  0  0  0  0  0  0
    2.8578    0.0000    0.0000 C   0  0  0  0  0  0  0  0  0  0  0  0
    0.0000    0.8250    0.0000 N   0  0  0  0  0  0  0  0  0  0  0  0
    1.4289    0.0000    0.0000 N   0  0  0  0  0  0  0  0  0  0  0  0
    2.8578    0.8250    0.0000 S   0  0  0  0  0  0  0  0  0  0  0  0
    0.0000    0.0000    0.0000 H   0  0  0  0  0  0  0  0  0  0  0  0
    0.0000    0.0000    0.0000 H   0  0  0  0  0  0  0  0  0  0  0  0
    0.0000    0.0000    0.0000 H   0  0  0  0  0  0  0  0  0  0  0  0
    0.0000    0.0000    0.0000 H   0  0  0  0  0  0  0  0  0  0  0  0
    0.0000    0.0000    0.0000 H   0  0  0  0  0  0  0  0  0  0  0  0
    0.0000    0.0000    0.0000 H   0  0  0  0  0  0  0  0  0  0  0  0
    0.0000    0.0000    0.0000 H   0  0  0  0  0  0  0  0  0  0  0  0
    0.0000    0.0000    0.0000 H   0  0  0  0  0  0  0  0  0  0  0  0
    0.0000    0.0000    0.0000 H   0  0  0  0  0  0  0  0  0  0  0  0
    0.0000    0.0000    0.0000 H   0  0  0  0  0  0  0  0  0  0  0  0
    0.0000    0.0000    0.0000 H   0  0  0  0  0  0  0  0  0  0  0  0
    0.0000    0.0000    0.0000 H   0  0  0  0  0  0  0  0  0  0  0  0
    0.0000    0.0000    0.0000 H   0  0  0  0  0  0  0  0  0  0  0  0
    0.0000    0.0000    0.0000 H   0  0  0  0  0  0  0  0  0  0  0  0
    0.0000    0.0000    0.0000 H   0  0  0  0  0  0  0  0  0  0  0  0
    0.0000    0.0000    0.0000 H   0  0  0  0  0  0  0  0  0  0  0  0
    0.0000    0.0000    0.0000 H   0  0  0  0  0  0  0  0  0  0  0  0
    0.0000    0.0000    0.0000 H   0  0  0  0  0  0  0  0  0  0  0  0
    0.0000    0.0000    0.0000 H   0  0  0  0  0  0  0  0  0  0  0  0
    0.0000    0.0000    0.0000 H   0  0  0  0  0  0  0  0  0  0  0  0
    0.0000    0.0000    0.0000 H   0  0  0  0  0  0  0  0  0  0  0  0
    0.0000    0.0000    0.0000 H   0  0  0  0  0  0  0  0  0  0  0  0
    0.0000    0.0000    0.0000 H   0  0  0  0  0  0  0  0  0  0  0  0
  4  3  2  0
  5  3  1  0
  6  4  1  0
  8  7  2  0
 11  9  1  0
 12 10  1  0
 14  1  1  0
 14  7  1  0
 14 13  2  0
 15  2  1  0
 15 13  1  0
 16  5  2  0
 17  8  1  0
 17 15  2  0
 18  6  2  0
 18 16  1  0
 19  9  1  0
 19 10  1  0
 20 11  1  0
 20 12  1  0
 20 16  1  0
 21 17  1  0
 21 18  1  0
  1 22  1  0
  1 23  1  0
  1 24  1  0
  2 25  1  0
  2 26  1  0
  2 27  1  0
  3 28  1  0
  4 29  1  0
  5 30  1  0
  6 31  1  0
  7 32  1  0
  8 33  1  0
  9 34  1  0
  9 35  1  0
 10 36  1  0
 10 37  1  0
 11 38  1  0
 11 39  1  0
 12 40  1  0
 12 41  1  0
 13 42  1  0
 19 43  1  0
 19 44  1  0
M  CHG  1  19   1
M  END
>  <ALOGPS_LOGP>  (1) 
1.62

>  <ALOGPS_LOGS>  (1) 
-6.68

>  <ALOGPS_SOLUBILITY>  (1) 
7.00e-05 g/l

>  <DATABASE_ID>  (1) 
DB09068

>  <DATABASE_NAME>  (1) 
drugbank

>  <DRUGBANK_ID>  (1) 
DB09068

>  <DRUG_GROUPS>  (1) 
approved

>  <EXACT_MASS>  (1) 
299.157646343

>  <FORMULA>  (1) 
C18H23N2S

>  <GENERIC_NAME>  (1) 
Vortioxetine

>  <INCHI_IDENTIFIER>  (1) 
InChI=1S/C18H22N2S/c1-14-7-8-17(15(2)13-14)21-18-6-4-3-5-16(18)20-11-9-19-10-12-20/h3-8,13,19H,9-12H2,1-2H3/p+1

>  <INCHI_KEY>  (1) 
YQNWZWMKLDQSAC-UHFFFAOYSA-O

>  <JCHEM_ACCEPTOR_COUNT>  (1) 
1

>  <JCHEM_ATOM_COUNT>  (1) 
44

>  <JCHEM_AVERAGE_POLARIZABILITY>  (1) 
35.276707977163596

>  <JCHEM_BIOAVAILABILITY>  (1) 
1

>  <JCHEM_DONOR_COUNT>  (1) 
1

>  <JCHEM_FORMAL_CHARGE>  (1) 
1

>  <JCHEM_GHOSE_FILTER>  (1) 
1

>  <JCHEM_IUPAC>  (1) 
4-{2-[(2,4-dimethylphenyl)sulfanyl]phenyl}piperazin-1-ium

>  <JCHEM_LOGP>  (1) 
4.7609535586666665

>  <JCHEM_MDDR_LIKE_RULE>  (1) 
0

>  <JCHEM_NUMBER_OF_RINGS>  (1) 
3

>  <JCHEM_PHYSIOLOGICAL_CHARGE>  (1) 
1

>  <JCHEM_PKA_STRONGEST_BASIC>  (1) 
8.84631496768157

>  <JCHEM_POLAR_SURFACE_AREA>  (1) 
19.85

>  <JCHEM_REFRACTIVITY>  (1) 
105.42339999999999

>  <JCHEM_ROTATABLE_BOND_COUNT>  (1) 
3

>  <JCHEM_RULE_OF_FIVE>  (1) 
1

>  <JCHEM_TRADITIONAL_IUPAC>  (1) 
4-{2-[(2,4-dimethylphenyl)sulfanyl]phenyl}piperazin-1-ium

>  <JCHEM_VEBER_RULE>  (1) 
1

>  <MOLECULAR_WEIGHT>  (1) 
299.46

>  <PRODUCTS>  (1) 
Brintellix; Trintellix

>  <SALTS>  (1) 
vortioxetine hydrobromide

>  <SECONDARY_ACCESSION_NUMBERS>  (1) 
DB05700

>  <SMILES>  (1) 
CC1=CC(C)=C(SC2=CC=CC=C2N2CC[NH2+]CC2)C=C1

>  <SYNONYMS>  (1) 
4-{2-[(2,4-dimethylphenyl)sulfanyl]phenyl}piperazin-1-ium

$$$$
