
     RDKit          2D

140143  0  0  0  0  0  0  0  0999 V2000
   -1.4848    0.6480    0.0000 C   0  0  0  0  0  0  0  0  0  0  0  0
   -1.4815   -0.1653    0.0000 C   0  0  0  0  0  0  0  0  0  0  0  0
   -0.7833   -0.6142    0.0000 N   0  0  0  0  0  0  0  0  0  0  0  0
   -2.1907   -0.5865    0.0000 C   0  0  0  0  0  0  0  0  0  0  0  0
   -2.1807   -1.4114    0.0000 O   0  0  0  0  0  0  0  0  0  0  0  0
   -0.0655   -0.2444    0.0000 C   0  0  0  0  0  0  0  0  0  0  0  0
   -2.9154   -0.1799    0.0000 N   0  0  0  0  0  0  0  0  0  0  0  0
   -3.6103   -0.5924    0.0000 C   0  0  0  0  0  0  0  0  0  0  0  0
   -4.3243   -0.1917    0.0000 C   0  0  0  0  0  0  0  0  0  0  0  0
   -3.6414   -1.4118    0.0000 C   0  0  0  0  0  0  0  0  0  0  0  0
   -4.3508   -1.8330    0.0000 C   0  0  0  0  0  0  0  0  0  0  0  0
   -4.3820   -2.6490    0.0000 S   0  0  0  0  0  0  0  0  0  0  0  0
   -5.0927   -3.0712    0.0000 C   0  0  0  0  0  0  0  0  0  0  0  0
   -5.0391   -0.6164    0.0000 N   0  0  0  0  0  0  0  0  0  0  0  0
   -4.3342    0.6502    0.0000 O   0  0  0  0  0  0  0  0  0  0  0  0
   -5.7569   -0.2137    0.0000 C   0  0  0  0  0  0  0  0  0  0  0  0
   -6.4580   -0.6304    0.0000 C   0  0  0  0  0  0  0  0  0  0  0  0
   -7.1693   -0.2314    0.0000 N   0  0  0  0  0  0  0  0  0  0  0  0
   -6.4891   -1.4531    0.0000 O   0  0  0  0  0  0  0  0  0  0  0  0
   -5.7674    0.6088    0.0000 C   0  0  0  0  0  0  0  0  0  0  0  0
   -6.5012    1.0205    0.0000 C   0  0  0  0  0  0  0  0  0  0  0  0
   -7.1998    0.6057    0.0000 O   0  0  0  0  0  0  0  0  0  0  0  0
   -6.5118    1.8461    0.0000 O   0  0  0  0  0  0  0  0  0  0  0  0
   -7.8853   -0.6571    0.0000 C   0  0  0  0  0  0  0  0  0  0  0  0
   -8.6028   -0.2550    0.0000 C   0  0  0  0  0  0  0  0  0  0  0  0
   -7.8746   -1.4941    0.0000 C   0  0  0  0  0  0  0  0  0  0  0  0
   -8.5947   -1.9224    0.0000 C   0  0  0  0  0  0  0  0  0  0  0  0
   -9.3037   -0.6717    0.0000 N   0  0  0  0  0  0  0  0  0  0  0  0
   -8.5723    0.5675    0.0000 O   0  0  0  0  0  0  0  0  0  0  0  0
   -9.3179   -1.5172    0.0000 C   0  0  0  0  0  0  0  0  0  0  0  0
  -10.0268   -1.9390    0.0000 C   0  0  0  0  0  0  0  0  0  0  0  0
  -10.0160   -2.7639    0.0000 C   0  0  0  0  0  0  0  0  0  0  0  0
   -9.2928   -3.1689    0.0000 C   0  0  0  0  0  0  0  0  0  0  0  0
   -8.5841   -2.7471    0.0000 C   0  0  0  0  0  0  0  0  0  0  0  0
    0.6425   -0.6997    0.0000 C   0  0  0  0  0  0  0  0  0  0  0  0
    1.3755   -0.3221    0.0000 N   0  0  0  0  0  0  0  0  0  0  0  0
    2.0877   -0.7798    0.0000 C   0  0  0  0  0  0  0  0  0  0  0  0
    2.8182   -0.4032    0.0000 C   0  0  0  0  0  0  0  0  0  0  0  0
    3.5316   -0.8615    0.0000 N   0  0  0  0  0  0  0  0  0  0  0  0
   -2.2125    1.0603    0.0000 C   0  0  0  0  0  0  0  0  0  0  0  0
   -2.1954    1.8855    0.0000 C   0  0  0  0  0  0  0  0  0  0  0  0
   -2.9753    2.1560    0.0000 C   0  0  0  0  0  0  0  0  0  0  0  0
   -3.4736    1.4979    0.0000 N   0  0  0  0  0  0  0  0  0  0  0  0
   -3.0018    0.8206    0.0000 C   0  0  0  0  0  0  0  0  0  0  0  0
   -1.5716    2.4253    0.0000 C   0  0  0  0  0  0  0  0  0  0  0  0
   -1.7271    3.2353    0.0000 C   0  0  0  0  0  0  0  0  0  0  0  0
   -2.5070    3.5060    0.0000 C   0  0  0  0  0  0  0  0  0  0  0  0
   -3.1309    2.9662    0.0000 C   0  0  0  0  0  0  0  0  0  0  0  0
   -0.0676    0.5674    0.0000 O   0  0  0  0  0  0  0  0  0  0  0  0
    2.0889   -1.6168    0.0000 O   0  0  0  0  0  0  0  0  0  0  0  0
    2.8571    0.4143    0.0000 C   0  0  0  0  0  0  0  0  0  0  0  0
    2.1677    0.8576    0.0000 C   0  0  0  0  0  0  0  0  0  0  0  0
    2.1665    1.6988    0.0000 S   0  0  0  0  0  0  0  0  0  0  0  0
    1.4456    2.1136    0.0000 C   0  0  0  0  0  0  0  0  0  0  0  0
    4.2652   -0.4831    0.0000 C   0  0  0  0  0  0  0  0  0  0  0  0
    4.9783   -0.9411    0.0000 C   0  0  0  0  0  0  0  0  0  0  0  0
    5.7138   -0.5617    0.0000 C   0  0  0  0  0  0  0  0  0  0  0  0
    4.2626    0.3315    0.0000 O   0  0  0  0  0  0  0  0  0  0  0  0
    4.9799   -1.7810    0.0000 N   0  0  0  0  0  0  0  0  0  0  0  0
    4.2644   -2.1959    0.0000 C   0  0  0  0  0  0  0  0  0  0  0  0
    6.4305   -1.0218    0.0000 C   0  0  0  0  0  0  0  0  0  0  0  0
    6.4323   -1.8640    0.0000 C   0  0  0  0  0  0  0  0  0  0  0  0
    7.0885   -2.3119    0.0000 C   0  0  0  0  0  0  0  0  0  0  0  0
    7.8667   -1.9316    0.0000 C   0  0  0  0  0  0  0  0  0  0  0  0
    7.8649   -1.0895    0.0000 C   0  0  0  0  0  0  0  0  0  0  0  0
    7.1673   -0.6416    0.0000 C   0  0  0  0  0  0  0  0  0  0  0  0
    8.5907   -2.3826    0.0000 O   0  0  0  0  0  0  0  0  0  0  0  0
    9.3087   -2.7971    0.0000 S   0  0  0  0  0  0  0  0  0  0  0  0
   10.0268   -3.2116    0.0000 O   0  0  0  0  0  0  0  0  0  0  0  0
    9.7284   -2.0708    0.0000 O   0  0  0  0  0  0  0  0  0  0  0  0
    8.8992   -3.5060    0.0000 O   0  0  0  0  0  0  0  0  0  0  0  0
    3.5563   -1.7889    0.0000 O   0  0  0  0  0  0  0  0  0  0  0  0
    4.2660   -3.0256    0.0000 C   0  0  0  0  0  0  0  0  0  0  0  0
    4.9939   -3.4442    0.0000 N   0  0  0  0  0  0  0  0  0  0  0  0
    3.5578   -3.4364    0.0000 C   0  0  0  0  0  0  0  0  0  0  0  0
    2.8525   -3.0308    0.0000 C   0  0  0  0  0  0  0  0  0  0  0  0
    2.1497   -3.4385    0.0000 O   0  0  0  0  0  0  0  0  0  0  0  0
    2.8509   -2.1968    0.0000 O   0  0  0  0  0  0  0  0  0  0  0  0
    0.0000    0.0000    0.0000 H   0  0  0  0  0  0  0  0  0  0  0  0
    0.0000    0.0000    0.0000 H   0  0  0  0  0  0  0  0  0  0  0  0
    0.0000    0.0000    0.0000 H   0  0  0  0  0  0  0  0  0  0  0  0
    0.0000    0.0000    0.0000 H   0  0  0  0  0  0  0  0  0  0  0  0
    0.0000    0.0000    0.0000 H   0  0  0  0  0  0  0  0  0  0  0  0
    0.0000    0.0000    0.0000 H   0  0  0  0  0  0  0  0  0  0  0  0
    0.0000    0.0000    0.0000 H   0  0  0  0  0  0  0  0  0  0  0  0
    0.0000    0.0000    0.0000 H   0  0  0  0  0  0  0  0  0  0  0  0
    0.0000    0.0000    0.0000 H   0  0  0  0  0  0  0  0  0  0  0  0
    0.0000    0.0000    0.0000 H   0  0  0  0  0  0  0  0  0  0  0  0
    0.0000    0.0000    0.0000 H   0  0  0  0  0  0  0  0  0  0  0  0
    0.0000    0.0000    0.0000 H   0  0  0  0  0  0  0  0  0  0  0  0
    0.0000    0.0000    0.0000 H   0  0  0  0  0  0  0  0  0  0  0  0
    0.0000    0.0000    0.0000 H   0  0  0  0  0  0  0  0  0  0  0  0
    0.0000    0.0000    0.0000 H   0  0  0  0  0  0  0  0  0  0  0  0
    0.0000    0.0000    0.0000 H   0  0  0  0  0  0  0  0  0  0  0  0
    0.0000    0.0000    0.0000 H   0  0  0  0  0  0  0  0  0  0  0  0
    0.0000    0.0000    0.0000 H   0  0  0  0  0  0  0  0  0  0  0  0
    0.0000    0.0000    0.0000 H   0  0  0  0  0  0  0  0  0  0  0  0
    0.0000    0.0000    0.0000 H   0  0  0  0  0  0  0  0  0  0  0  0
    0.0000    0.0000    0.0000 H   0  0  0  0  0  0  0  0  0  0  0  0
    0.0000    0.0000    0.0000 H   0  0  0  0  0  0  0  0  0  0  0  0
    0.0000    0.0000    0.0000 H   0  0  0  0  0  0  0  0  0  0  0  0
    0.0000    0.0000    0.0000 H   0  0  0  0  0  0  0  0  0  0  0  0
    0.0000    0.0000    0.0000 H   0  0  0  0  0  0  0  0  0  0  0  0
    0.0000    0.0000    0.0000 H   0  0  0  0  0  0  0  0  0  0  0  0
    0.0000    0.0000    0.0000 H   0  0  0  0  0  0  0  0  0  0  0  0
    0.0000    0.0000    0.0000 H   0  0  0  0  0  0  0  0  0  0  0  0
    0.0000    0.0000    0.0000 H   0  0  0  0  0  0  0  0  0  0  0  0
    0.0000    0.0000    0.0000 H   0  0  0  0  0  0  0  0  0  0  0  0
    0.0000    0.0000    0.0000 H   0  0  0  0  0  0  0  0  0  0  0  0
    0.0000    0.0000    0.0000 H   0  0  0  0  0  0  0  0  0  0  0  0
    0.0000    0.0000    0.0000 H   0  0  0  0  0  0  0  0  0  0  0  0
    0.0000    0.0000    0.0000 H   0  0  0  0  0  0  0  0  0  0  0  0
    0.0000    0.0000    0.0000 H   0  0  0  0  0  0  0  0  0  0  0  0
    0.0000    0.0000    0.0000 H   0  0  0  0  0  0  0  0  0  0  0  0
    0.0000    0.0000    0.0000 H   0  0  0  0  0  0  0  0  0  0  0  0
    0.0000    0.0000    0.0000 H   0  0  0  0  0  0  0  0  0  0  0  0
    0.0000    0.0000    0.0000 H   0  0  0  0  0  0  0  0  0  0  0  0
    0.0000    0.0000    0.0000 H   0  0  0  0  0  0  0  0  0  0  0  0
    0.0000    0.0000    0.0000 H   0  0  0  0  0  0  0  0  0  0  0  0
    0.0000    0.0000    0.0000 H   0  0  0  0  0  0  0  0  0  0  0  0
    0.0000    0.0000    0.0000 H   0  0  0  0  0  0  0  0  0  0  0  0
    0.0000    0.0000    0.0000 H   0  0  0  0  0  0  0  0  0  0  0  0
    0.0000    0.0000    0.0000 H   0  0  0  0  0  0  0  0  0  0  0  0
    0.0000    0.0000    0.0000 H   0  0  0  0  0  0  0  0  0  0  0  0
    0.0000    0.0000    0.0000 H   0  0  0  0  0  0  0  0  0  0  0  0
    0.0000    0.0000    0.0000 H   0  0  0  0  0  0  0  0  0  0  0  0
    0.0000    0.0000    0.0000 H   0  0  0  0  0  0  0  0  0  0  0  0
    0.0000    0.0000    0.0000 H   0  0  0  0  0  0  0  0  0  0  0  0
    0.0000    0.0000    0.0000 H   0  0  0  0  0  0  0  0  0  0  0  0
    0.0000    0.0000    0.0000 H   0  0  0  0  0  0  0  0  0  0  0  0
    0.0000    0.0000    0.0000 H   0  0  0  0  0  0  0  0  0  0  0  0
    0.0000    0.0000    0.0000 H   0  0  0  0  0  0  0  0  0  0  0  0
    0.0000    0.0000    0.0000 H   0  0  0  0  0  0  0  0  0  0  0  0
    0.0000    0.0000    0.0000 H   0  0  0  0  0  0  0  0  0  0  0  0
    0.0000    0.0000    0.0000 H   0  0  0  0  0  0  0  0  0  0  0  0
    0.0000    0.0000    0.0000 H   0  0  0  0  0  0  0  0  0  0  0  0
    0.0000    0.0000    0.0000 H   0  0  0  0  0  0  0  0  0  0  0  0
    0.0000    0.0000    0.0000 H   0  0  0  0  0  0  0  0  0  0  0  0
    0.0000    0.0000    0.0000 H   0  0  0  0  0  0  0  0  0  0  0  0
    0.0000    0.0000    0.0000 H   0  0  0  0  0  0  0  0  0  0  0  0
  2  1  1  6
  2  3  1  0
  2  4  1  0
  4  5  2  0
  3  6  1  0
  4  7  1  0
  8  7  1  1
  8  9  1  0
  8 10  1  0
 10 11  1  0
 11 12  1  0
 12 13  1  0
  9 14  1  0
  9 15  2  0
 16 14  1  6
 16 17  1  0
 17 18  1  0
 17 19  2  0
 16 20  1  0
 20 21  1  0
 21 22  1  0
 21 23  2  0
 24 18  1  1
 24 25  1  0
 24 26  1  0
 26 27  1  0
 25 28  1  0
 25 29  2  0
 27 30  2  0
 30 31  1  0
 31 32  2  0
 32 33  1  0
 33 34  2  0
 27 34  1  0
  6 35  1  0
 35 36  1  0
 36 37  1  0
 38 37  1  6
 38 39  1  0
  1 40  1  0
 40 41  1  0
 41 42  2  0
 42 43  1  0
 43 44  1  0
 40 44  2  0
 41 45  1  0
 45 46  2  0
 46 47  1  0
 47 48  2  0
 42 48  1  0
  6 49  2  0
 37 50  2  0
 38 51  1  0
 51 52  1  0
 52 53  1  0
 53 54  1  0
 39 55  1  0
 56 55  1  6
 56 57  1  0
 55 58  2  0
 56 59  1  0
 59 60  1  0
 57 61  1  0
 61 62  2  0
 62 63  1  0
 63 64  2  0
 64 65  1  0
 65 66  2  0
 61 66  1  0
 64 67  1  0
 67 68  1  0
 68 69  1  0
 68 70  2  0
 68 71  2  0
 60 72  2  0
 73 60  1  1
 73 74  1  0
 73 75  1  0
 75 76  1  0
 76 77  1  0
 76 78  2  0
  1 79  1  0
  1 80  1  0
  2 81  1  0
  3 82  1  0
  7 83  1  0
  8 84  1  0
 10 85  1  0
 10 86  1  0
 11 87  1  0
 11 88  1  0
 13 89  1  0
 13 90  1  0
 13 91  1  0
 14 92  1  0
 16 93  1  0
 18 94  1  0
 20 95  1  0
 20 96  1  0
 22 97  1  0
 24 98  1  0
 26 99  1  0
 26100  1  0
 28101  1  0
 28102  1  0
 30103  1  0
 31104  1  0
 32105  1  0
 33106  1  0
 34107  1  0
 35108  1  0
 35109  1  0
 36110  1  0
 38111  1  0
 39112  1  0
 43113  1  0
 44114  1  0
 45115  1  0
 46116  1  0
 47117  1  0
 48118  1  0
 51119  1  0
 51120  1  0
 52121  1  0
 52122  1  0
 54123  1  0
 54124  1  0
 54125  1  0
 56126  1  0
 57127  1  0
 57128  1  0
 59129  1  0
 62130  1  0
 63131  1  0
 65132  1  0
 66133  1  0
 69134  1  0
 73135  1  0
 74136  1  0
 74137  1  0
 75138  1  0
 75139  1  0
 77140  1  0
M  END
>  <ALOGPS_LOGP>  (1) 
0.48

>  <ALOGPS_LOGS>  (1) 
-5.41

>  <ALOGPS_SOLUBILITY>  (1) 
4.41e-03 g/l

>  <DATABASE_ID>  (1) 
DB09142

>  <DATABASE_NAME>  (1) 
drugbank

>  <DRUGBANK_ID>  (1) 
DB09142

>  <DRUG_GROUPS>  (1) 
approved

>  <EXACT_MASS>  (1) 
1142.350739478

>  <FORMULA>  (1) 
C49H62N10O16S3

>  <GENERIC_NAME>  (1) 
Sincalide

>  <INCHI_IDENTIFIER>  (1) 
InChI=1S/C49H62N10O16S3/c1-76-18-16-34(55-47(69)37(58-44(66)32(50)23-41(61)62)21-28-12-14-30(15-13-28)75-78(72,73)74)45(67)53-26-40(60)54-38(22-29-25-52-33-11-7-6-10-31(29)33)48(70)56-35(17-19-77-2)46(68)59-39(24-42(63)64)49(71)57-36(43(51)65)20-27-8-4-3-5-9-27/h3-15,25,32,34-39,52H,16-24,26,50H2,1-2H3,(H2,51,65)(H,53,67)(H,54,60)(H,55,69)(H,56,70)(H,57,71)(H,58,66)(H,59,68)(H,61,62)(H,63,64)(H,72,73,74)/t32-,34-,35-,36-,37-,38-,39-/m0/s1

>  <INCHI_KEY>  (1) 
IZTQOLKUZKXIRV-YRVFCXMDSA-N

>  <JCHEM_ACCEPTOR_COUNT>  (1) 
16

>  <JCHEM_ATOM_COUNT>  (1) 
140

>  <JCHEM_AVERAGE_POLARIZABILITY>  (1) 
112.68611988909541

>  <JCHEM_BIOAVAILABILITY>  (1) 
0

>  <JCHEM_DONOR_COUNT>  (1) 
13

>  <JCHEM_FORMAL_CHARGE>  (1) 
0

>  <JCHEM_GHOSE_FILTER>  (1) 
0

>  <JCHEM_IUPAC>  (1) 
(3S)-3-[(2S)-2-[(2S)-2-{2-[(2S)-2-[(2S)-2-[(2S)-2-amino-3-carboxypropanamido]-3-[4-(sulfooxy)phenyl]propanamido]-4-(methylsulfanyl)butanamido]acetamido}-3-(1H-indol-3-yl)propanamido]-4-(methylsulfanyl)butanamido]-3-{[(1S)-1-carbamoyl-2-phenylethyl]carbamoyl}propanoic acid

>  <JCHEM_LOGP>  (1) 
-2.4145979340218857

>  <JCHEM_MDDR_LIKE_RULE>  (1) 
1

>  <JCHEM_NUMBER_OF_RINGS>  (1) 
4

>  <JCHEM_PHYSIOLOGICAL_CHARGE>  (1) 
-2

>  <JCHEM_PKA>  (1) 
3.200826278276701

>  <JCHEM_PKA_STRONGEST_ACIDIC>  (1) 
-2.0350967414839882

>  <JCHEM_PKA_STRONGEST_BASIC>  (1) 
8.225170840685099

>  <JCHEM_POLAR_SURFACE_AREA>  (1) 
426.8

>  <JCHEM_REFRACTIVITY>  (1) 
282.0718

>  <JCHEM_ROTATABLE_BOND_COUNT>  (1) 
33

>  <JCHEM_RULE_OF_FIVE>  (1) 
0

>  <JCHEM_TRADITIONAL_IUPAC>  (1) 
(3S)-3-[(2S)-2-[(2S)-2-{2-[(2S)-2-[(2S)-2-[(2S)-2-amino-3-carboxypropanamido]-3-[4-(sulfooxy)phenyl]propanamido]-4-(methylsulfanyl)butanamido]acetamido}-3-(1H-indol-3-yl)propanamido]-4-(methylsulfanyl)butanamido]-3-{[(1S)-1-carbamoyl-2-phenylethyl]carbamoyl}propanoic acid

>  <JCHEM_VEBER_RULE>  (1) 
0

>  <MOLECULAR_WEIGHT>  (1) 
1143.27

>  <PRODUCTS>  (1) 
Kinevac; Kinevac (sincalide) for Injection 5mcg/vial; Kinevac Pws Inj 5mcg/vial; SIncalide

>  <SMILES>  (1) 
CSCC[C@H](NC(=O)[C@H](CC1=CC=C(OS(O)(=O)=O)C=C1)NC(=O)[C@@H](N)CC(O)=O)C(=O)NCC(=O)N[C@@H](CC1=CNC2=CC=CC=C12)C(=O)N[C@@H](CCSC)C(=O)N[C@@H](CC(O)=O)C(=O)N[C@@H](CC1=CC=CC=C1)C(N)=O

>  <SYNONYMS>  (1) 
CCK C-terminal octapeptide; CCK-8; Cholecystokinin C-terminal octapeptide

$$$$
