
     RDKit          2D

 32 32  0  0  0  0  0  0  0  0999 V2000
    0.0000    0.6187    0.0000 C   0  0  0  0  0  0  0  0  0  0  0  0
    0.7145    0.2062    0.0000 C   0  0  0  0  0  0  0  0  0  0  0  0
    0.7145   -0.6187    0.0000 C   0  0  0  0  0  0  0  0  0  0  0  0
    0.0000   -1.0312    0.0000 C   0  0  0  0  0  0  0  0  0  0  0  0
   -0.7145   -0.6187    0.0000 C   0  0  0  0  0  0  0  0  0  0  0  0
   -0.7145    0.2062    0.0000 C   0  0  0  0  0  0  0  0  0  0  0  0
   -1.4289   -1.0312    0.0000 N   0  0  0  0  0  0  0  0  0  0  0  0
   -1.4289    0.6187    0.0000 I   0  0  0  0  0  0  0  0  0  0  0  0
    0.0000   -1.8562    0.0000 I   0  0  0  0  0  0  0  0  0  0  0  0
   -2.1434   -0.6187    0.0000 C   0  0  0  0  0  0  0  0  0  0  0  0
    0.0000    1.4437    0.0000 C   0  0  0  0  0  0  0  0  0  0  0  0
    1.4289   -1.0312    0.0000 N   0  0  0  0  0  0  0  0  0  0  0  0
   -2.8579   -1.0312    0.0000 C   0  0  0  0  0  0  0  0  0  0  0  0
   -2.1434    0.2062    0.0000 O   0  0  0  0  0  0  0  0  0  0  0  0
    1.4289    0.6187    0.0000 I   0  0  0  0  0  0  0  0  0  0  0  0
    0.7145    1.8562    0.0000 O   0  0  0  0  0  0  0  0  0  0  0  0
   -0.7145    1.8562    0.0000 O   0  0  0  0  0  0  0  0  0  0  0  0
    2.1434   -0.6187    0.0000 C   0  0  0  0  0  0  0  0  0  0  0  0
    2.1434    0.2062    0.0000 O   0  0  0  0  0  0  0  0  0  0  0  0
    2.8579   -1.0312    0.0000 C   0  0  0  0  0  0  0  0  0  0  0  0
   -1.4289   -1.8562    0.0000 C   0  0  0  0  0  0  0  0  0  0  0  0
    0.0000    0.0000    0.0000 H   0  0  0  0  0  0  0  0  0  0  0  0
    0.0000    0.0000    0.0000 H   0  0  0  0  0  0  0  0  0  0  0  0
    0.0000    0.0000    0.0000 H   0  0  0  0  0  0  0  0  0  0  0  0
    0.0000    0.0000    0.0000 H   0  0  0  0  0  0  0  0  0  0  0  0
    0.0000    0.0000    0.0000 H   0  0  0  0  0  0  0  0  0  0  0  0
    0.0000    0.0000    0.0000 H   0  0  0  0  0  0  0  0  0  0  0  0
    0.0000    0.0000    0.0000 H   0  0  0  0  0  0  0  0  0  0  0  0
    0.0000    0.0000    0.0000 H   0  0  0  0  0  0  0  0  0  0  0  0
    0.0000    0.0000    0.0000 H   0  0  0  0  0  0  0  0  0  0  0  0
    0.0000    0.0000    0.0000 H   0  0  0  0  0  0  0  0  0  0  0  0
    0.0000    0.0000    0.0000 H   0  0  0  0  0  0  0  0  0  0  0  0
  3 12  1  0
  3  2  2  0
  2 15  1  0
  5  7  1  0
  5  6  1  0
  6  8  1  0
  5  4  2  0
  4  3  1  0
  4  9  1  0
  6  1  2  0
  1  2  1  0
  1 11  1  0
  7 10  1  0
 10 13  1  0
 10 14  2  0
 11 16  1  0
 11 17  2  0
 12 18  1  0
 18 19  2  0
 18 20  1  0
  7 21  1  0
 12 22  1  0
 13 23  1  0
 13 24  1  0
 13 25  1  0
 16 26  1  0
 20 27  1  0
 20 28  1  0
 20 29  1  0
 21 30  1  0
 21 31  1  0
 21 32  1  0
M  END
>  <ALOGPS_LOGP>  (1) 
2.18

>  <ALOGPS_LOGS>  (1) 
-3.85

>  <ALOGPS_SOLUBILITY>  (1) 
8.77e-02 g/l

>  <DATABASE_ID>  (1) 
DB09346

>  <DATABASE_NAME>  (1) 
drugbank

>  <DRUGBANK_ID>  (1) 
DB09346

>  <DRUG_GROUPS>  (1) 
approved

>  <EXACT_MASS>  (1) 
627.78529

>  <FORMULA>  (1) 
C12H11I3N2O4

>  <GENERIC_NAME>  (1) 
Metrizoic acid

>  <INCHI_IDENTIFIER>  (1) 
InChI=1S/C12H11I3N2O4/c1-4(18)16-10-7(13)6(12(20)21)8(14)11(9(10)15)17(3)5(2)19/h1-3H3,(H,16,18)(H,20,21)

>  <INCHI_KEY>  (1) 
GGGDNPWHMNJRFN-UHFFFAOYSA-N

>  <JCHEM_ACCEPTOR_COUNT>  (1) 
4

>  <JCHEM_ATOM_COUNT>  (1) 
32

>  <JCHEM_AVERAGE_POLARIZABILITY>  (1) 
39.933347222846706

>  <JCHEM_BIOAVAILABILITY>  (1) 
1

>  <JCHEM_DONOR_COUNT>  (1) 
2

>  <JCHEM_FORMAL_CHARGE>  (1) 
0

>  <JCHEM_GHOSE_FILTER>  (1) 
0

>  <JCHEM_IUPAC>  (1) 
3-acetamido-2,4,6-triiodo-5-(N-methylacetamido)benzoic acid

>  <JCHEM_LOGP>  (1) 
2.7571489623333334

>  <JCHEM_MDDR_LIKE_RULE>  (1) 
0

>  <JCHEM_NUMBER_OF_RINGS>  (1) 
1

>  <JCHEM_PHYSIOLOGICAL_CHARGE>  (1) 
-1

>  <JCHEM_PKA>  (1) 
12.13898438173849

>  <JCHEM_PKA_STRONGEST_ACIDIC>  (1) 
2.163155274865334

>  <JCHEM_PKA_STRONGEST_BASIC>  (1) 
-3.8989699821147625

>  <JCHEM_POLAR_SURFACE_AREA>  (1) 
86.71000000000001

>  <JCHEM_REFRACTIVITY>  (1) 
106.24359999999999

>  <JCHEM_ROTATABLE_BOND_COUNT>  (1) 
3

>  <JCHEM_RULE_OF_FIVE>  (1) 
0

>  <JCHEM_TRADITIONAL_IUPAC>  (1) 
metrizoic acid

>  <JCHEM_VEBER_RULE>  (1) 
0

>  <MOLECULAR_WEIGHT>  (1) 
627.943

>  <SALTS>  (1) 
Calcium metrizoate; Meglumine metrizoate; Metrizoate magnesium; Metrizoate sodium

>  <SMILES>  (1) 
CN(C(C)=O)C1=C(I)C(C(O)=O)=C(I)C(NC(C)=O)=C1I

$$$$
