
     RDKit          2D

 51 50  0  0  0  0  0  0  0  0999 V2000
   -1.2375    0.0000    0.0000 C   0  0  0  0  0  0  0  0  0  0  0  0
   -1.2375    0.8250    0.0000 C   0  0  0  0  0  0  0  0  0  0  0  0
   -1.9519   -0.4125    0.0000 C   0  0  0  0  0  0  0  0  0  0  0  0
   -2.6664    0.8250    0.0000 C   0  0  0  0  0  0  0  0  0  0  0  0
   -1.9519    2.0625    0.0000 C   0  0  0  0  0  0  0  0  0  0  0  0
   -1.9519    1.2375    0.0000 C   0  0  0  0  0  0  0  0  0  0  0  0
   -2.6664    0.0000    0.0000 C   0  0  0  0  0  0  0  0  0  0  0  0
   -2.6664    3.3000    0.0000 C   0  0  0  0  0  0  0  0  0  0  0  0
   -3.3809   -0.4125    0.0000 I   0  0  0  0  0  0  0  0  0  0  0  0
   -3.3809    3.7125    0.0000 N   0  0  0  0  0  0  0  0  0  0  0  0
   -1.9519    3.7125    0.0000 N   0  0  0  0  0  0  0  0  0  0  0  0
   -2.6664    2.4750    0.0000 N   0  0  0  0  0  0  0  0  0  0  0  0
    3.3809    0.0000    0.0000 C   0  0  0  0  0  0  0  0  0  0  0  0
    3.3809    0.8250    0.0000 C   0  0  0  0  0  0  0  0  0  0  0  0
    2.6664   -0.4125    0.0000 C   0  0  0  0  0  0  0  0  0  0  0  0
    1.9519    0.8250    0.0000 C   0  0  0  0  0  0  0  0  0  0  0  0
    2.6664    2.0625    0.0000 C   0  0  0  0  0  0  0  0  0  0  0  0
    2.6664    1.2375    0.0000 C   0  0  0  0  0  0  0  0  0  0  0  0
    1.9519    0.0000    0.0000 C   0  0  0  0  0  0  0  0  0  0  0  0
    1.9519    3.3000    0.0000 C   0  0  0  0  0  0  0  0  0  0  0  0
    1.2375   -0.4125    0.0000 I   0  0  0  0  0  0  0  0  0  0  0  0
    1.2375    3.7125    0.0000 N   0  0  0  0  0  0  0  0  0  0  0  0
    2.6664    3.7125    0.0000 N   0  0  0  0  0  0  0  0  0  0  0  0
    1.9519    2.4750    0.0000 N   0  0  0  0  0  0  0  0  0  0  0  0
   -2.3092   -2.0625    0.0000 O   0  0  0  0  0  0  0  0  0  0  0  0
   -2.3092   -3.7125    0.0000 O   0  0  0  0  0  0  0  0  0  0  0  0
   -3.1342   -2.8875    0.0000 O   0  0  0  0  0  0  0  0  0  0  0  0
   -1.4842   -2.8875    0.0000 O   0  0  0  0  0  0  0  0  0  0  0  0
   -2.3092   -2.8875    0.0000 S   0  0  0  0  0  0  0  0  0  0  0  0
    0.0000    0.0000    0.0000 H   0  0  0  0  0  0  0  0  0  0  0  0
    0.0000    0.0000    0.0000 H   0  0  0  0  0  0  0  0  0  0  0  0
    0.0000    0.0000    0.0000 H   0  0  0  0  0  0  0  0  0  0  0  0
    0.0000    0.0000    0.0000 H   0  0  0  0  0  0  0  0  0  0  0  0
    0.0000    0.0000    0.0000 H   0  0  0  0  0  0  0  0  0  0  0  0
    0.0000    0.0000    0.0000 H   0  0  0  0  0  0  0  0  0  0  0  0
    0.0000    0.0000    0.0000 H   0  0  0  0  0  0  0  0  0  0  0  0
    0.0000    0.0000    0.0000 H   0  0  0  0  0  0  0  0  0  0  0  0
    0.0000    0.0000    0.0000 H   0  0  0  0  0  0  0  0  0  0  0  0
    0.0000    0.0000    0.0000 H   0  0  0  0  0  0  0  0  0  0  0  0
    0.0000    0.0000    0.0000 H   0  0  0  0  0  0  0  0  0  0  0  0
    0.0000    0.0000    0.0000 H   0  0  0  0  0  0  0  0  0  0  0  0
    0.0000    0.0000    0.0000 H   0  0  0  0  0  0  0  0  0  0  0  0
    0.0000    0.0000    0.0000 H   0  0  0  0  0  0  0  0  0  0  0  0
    0.0000    0.0000    0.0000 H   0  0  0  0  0  0  0  0  0  0  0  0
    0.0000    0.0000    0.0000 H   0  0  0  0  0  0  0  0  0  0  0  0
    0.0000    0.0000    0.0000 H   0  0  0  0  0  0  0  0  0  0  0  0
    0.0000    0.0000    0.0000 H   0  0  0  0  0  0  0  0  0  0  0  0
    0.0000    0.0000    0.0000 H   0  0  0  0  0  0  0  0  0  0  0  0
    0.0000    0.0000    0.0000 H   0  0  0  0  0  0  0  0  0  0  0  0
    0.0000    0.0000    0.0000 H   0  0  0  0  0  0  0  0  0  0  0  0
    0.0000    0.0000    0.0000 H   0  0  0  0  0  0  0  0  0  0  0  0
  2  1  2  0
  3  1  1  0
  6  2  1  0
  6  4  2  0
  6  5  1  0
  7  3  2  0
  7  4  1  0
  9  7  1  0
 10  8  2  3
 11  8  1  0
 12  5  1  0
 12  8  1  0
 14 13  2  0
 15 13  1  0
 18 14  1  0
 18 16  2  0
 18 17  1  0
 19 15  2  0
 19 16  1  0
 21 19  1  0
 22 20  2  3
 23 20  1  0
 24 17  1  0
 24 20  1  0
 29 25  1  0
 29 26  1  0
 29 27  2  0
 29 28  2  0
  1 30  1  0
  2 31  1  0
  3 32  1  0
  4 33  1  0
  5 34  1  0
  5 35  1  0
 10 36  1  0
 11 37  1  0
 11 38  1  0
 12 39  1  0
 13 40  1  0
 14 41  1  0
 15 42  1  0
 16 43  1  0
 17 44  1  0
 17 45  1  0
 22 46  1  0
 23 47  1  0
 23 48  1  0
 24 49  1  0
 25 50  1  0
 26 51  1  0
M  ISO  2   9 123  21 123
M  END
>  <ALOGPS_LOGP>  (1) 
1.42

>  <ALOGPS_LOGS>  (1) 
-3.44

>  <ALOGPS_SOLUBILITY>  (1) 
1.00e-01 g/l

>  <DATABASE_ID>  (1) 
DB09546

>  <DATABASE_NAME>  (1) 
drugbank

>  <DRUGBANK_ID>  (1) 
DB09546

>  <DRUG_GROUPS>  (1) 
approved

>  <EXACT_MASS>  (1) 
639.953520274

>  <FORMULA>  (1) 
C16H22I2N6O4S

>  <GENERIC_NAME>  (1) 
Iobenguane sulfate I-123

>  <INCHI_IDENTIFIER>  (1) 
InChI=1S/2C8H10IN3.H2O4S/c2*9-7-3-1-2-6(4-7)5-12-8(10)11;1-5(2,3)4/h2*1-4H,5H2,(H4,10,11,12);(H2,1,2,3,4)/i2*9-4;

>  <INCHI_KEY>  (1) 
XNACDNPGABUBFR-FKNPGSCZSA-N

>  <JCHEM_ACCEPTOR_COUNT>  (1) 
3

>  <JCHEM_ATOM_COUNT>  (1) 
51

>  <JCHEM_AVERAGE_POLARIZABILITY>  (1) 
21.87554179933275

>  <JCHEM_BIOAVAILABILITY>  (1) 
1

>  <JCHEM_DONOR_COUNT>  (1) 
3

>  <JCHEM_FORMAL_CHARGE>  (1) 
0

>  <JCHEM_GHOSE_FILTER>  (1) 
0

>  <JCHEM_IUPAC>  (1) 
bis(N-{[3-(¹²³I)iodophenyl]methyl}guanidine); sulfuric acid

>  <JCHEM_LOGP>  (1) 
1.6941879796666663

>  <JCHEM_MDDR_LIKE_RULE>  (1) 
0

>  <JCHEM_NUMBER_OF_RINGS>  (1) 
2

>  <JCHEM_PHYSIOLOGICAL_CHARGE>  (1) 
1

>  <JCHEM_PKA_STRONGEST_BASIC>  (1) 
11.746651842565164

>  <JCHEM_POLAR_SURFACE_AREA>  (1) 
61.900000000000006

>  <JCHEM_REFRACTIVITY>  (1) 
68.60849999999999

>  <JCHEM_ROTATABLE_BOND_COUNT>  (1) 
4

>  <JCHEM_RULE_OF_FIVE>  (1) 
0

>  <JCHEM_TRADITIONAL_IUPAC>  (1) 
bis(iobenguane I 123); sulfuric acid

>  <JCHEM_VEBER_RULE>  (1) 
0

>  <MOLECULAR_WEIGHT>  (1) 
640.26

>  <PRODUCTS>  (1) 
i 123 MIBG meta iodobenzylguanidine

>  <SMILES>  (1) 
OS(O)(=O)=O.NC(=N)NCC1=CC([123I])=CC=C1.NC(=N)NCC1=CC([123I])=CC=C1

>  <SYNONYMS>  (1) 
Iobenguane sulfate I 123

$$$$
