
     RDKit          2D

 52 51  0  0  0  0  0  0  0  0999 V2000
    0.4319   -2.0443    0.0000 C   0  0  0  0  0  0  0  0  0  0  0  0
    0.0194   -1.3298    0.0000 C   0  0  0  0  0  0  0  0  0  0  0  0
    0.4319   -0.6153    0.0000 C   0  0  0  0  0  0  0  0  0  0  0  0
   -0.8056   -1.3298    0.0000 C   0  0  0  0  0  0  0  0  0  0  0  0
   -1.2181   -2.0443    0.0000 C   0  0  0  0  0  0  0  0  0  0  0  0
   -2.0431   -2.0443    0.0000 C   0  0  0  0  0  0  0  0  0  0  0  0
   -2.4556   -1.3298    0.0000 C   0  0  0  0  0  0  0  0  0  0  0  0
   -2.0431   -0.6153    0.0000 C   0  0  0  0  0  0  0  0  0  0  0  0
   -1.2181   -0.6153    0.0000 C   0  0  0  0  0  0  0  0  0  0  0  0
   -0.8056    0.0992    0.0000 N   0  0  0  0  0  0  0  0  0  0  0  0
    0.0194    0.0992    0.0000 C   0  0  0  0  0  0  0  0  0  0  0  0
    0.7730   -0.2364    0.0000 O   0  0  0  0  0  0  0  0  0  0  0  0
    0.4319    0.8136    0.0000 C   0  0  0  0  0  0  0  0  0  0  0  0
    1.2569    0.8136    0.0000 N   0  0  0  0  0  0  0  0  0  0  0  0
    1.6694    1.5281    0.0000 C   0  0  0  0  0  0  0  0  0  0  0  0
    1.2569    2.2426    0.0000 C   0  0  0  0  0  0  0  0  0  0  0  0
    0.4319    2.2426    0.0000 O   0  0  0  0  0  0  0  0  0  0  0  0
    1.6694    2.9570    0.0000 O   0  0  0  0  0  0  0  0  0  0  0  0
    1.6694    0.0992    0.0000 C   0  0  0  0  0  0  0  0  0  0  0  0
    2.4944    0.0992    0.0000 C   0  0  0  0  0  0  0  0  0  0  0  0
    2.9069    0.8136    0.0000 O   0  0  0  0  0  0  0  0  0  0  0  0
    2.9069   -0.6153    0.0000 O   0  0  0  0  0  0  0  0  0  0  0  0
   -2.4556    0.0992    0.0000 C   0  0  0  0  0  0  0  0  0  0  0  0
   -2.0431    0.8136    0.0000 C   0  0  0  0  0  0  0  0  0  0  0  0
   -3.2806    0.0992    0.0000 C   0  0  0  0  0  0  0  0  0  0  0  0
    5.3819    0.0000    0.0000 Tc  0  0  0  0  0  0  0  0  0  0  0  0
    0.0000    0.0000    0.0000 H   0  0  0  0  0  0  0  0  0  0  0  0
    0.0000    0.0000    0.0000 H   0  0  0  0  0  0  0  0  0  0  0  0
    0.0000    0.0000    0.0000 H   0  0  0  0  0  0  0  0  0  0  0  0
    0.0000    0.0000    0.0000 H   0  0  0  0  0  0  0  0  0  0  0  0
    0.0000    0.0000    0.0000 H   0  0  0  0  0  0  0  0  0  0  0  0
    0.0000    0.0000    0.0000 H   0  0  0  0  0  0  0  0  0  0  0  0
    0.0000    0.0000    0.0000 H   0  0  0  0  0  0  0  0  0  0  0  0
    0.0000    0.0000    0.0000 H   0  0  0  0  0  0  0  0  0  0  0  0
    0.0000    0.0000    0.0000 H   0  0  0  0  0  0  0  0  0  0  0  0
    0.0000    0.0000    0.0000 H   0  0  0  0  0  0  0  0  0  0  0  0
    0.0000    0.0000    0.0000 H   0  0  0  0  0  0  0  0  0  0  0  0
    0.0000    0.0000    0.0000 H   0  0  0  0  0  0  0  0  0  0  0  0
    0.0000    0.0000    0.0000 H   0  0  0  0  0  0  0  0  0  0  0  0
    0.0000    0.0000    0.0000 H   0  0  0  0  0  0  0  0  0  0  0  0
    0.0000    0.0000    0.0000 H   0  0  0  0  0  0  0  0  0  0  0  0
    0.0000    0.0000    0.0000 H   0  0  0  0  0  0  0  0  0  0  0  0
    0.0000    0.0000    0.0000 H   0  0  0  0  0  0  0  0  0  0  0  0
    0.0000    0.0000    0.0000 H   0  0  0  0  0  0  0  0  0  0  0  0
    0.0000    0.0000    0.0000 H   0  0  0  0  0  0  0  0  0  0  0  0
    0.0000    0.0000    0.0000 H   0  0  0  0  0  0  0  0  0  0  0  0
    0.0000    0.0000    0.0000 H   0  0  0  0  0  0  0  0  0  0  0  0
    0.0000    0.0000    0.0000 H   0  0  0  0  0  0  0  0  0  0  0  0
    0.0000    0.0000    0.0000 H   0  0  0  0  0  0  0  0  0  0  0  0
    0.0000    0.0000    0.0000 H   0  0  0  0  0  0  0  0  0  0  0  0
    0.0000    0.0000    0.0000 H   0  0  0  0  0  0  0  0  0  0  0  0
    0.0000    0.0000    0.0000 H   0  0  0  0  0  0  0  0  0  0  0  0
  1  2  1  0
  2  3  1  0
  2  4  1  0
  4  5  2  0
  5  6  1  0
  6  7  2  0
  7  8  1  0
  8  9  2  0
  4  9  1  0
  9 10  1  0
 10 11  1  0
 11 12  2  0
 11 13  1  0
 13 14  1  0
 14 15  1  0
 15 16  1  0
 16 17  2  0
 16 18  1  0
 14 19  1  0
 19 20  1  0
 20 21  2  0
 20 22  1  0
  8 23  1  0
 23 24  1  0
 23 25  1  0
  1 27  1  0
  1 28  1  0
  1 29  1  0
  2 30  1  0
  3 31  1  0
  3 32  1  0
  3 33  1  0
  5 34  1  0
  6 35  1  0
  7 36  1  0
 10 37  1  0
 13 38  1  0
 13 39  1  0
 15 40  1  0
 15 41  1  0
 18 42  1  0
 19 43  1  0
 19 44  1  0
 22 45  1  0
 23 46  1  0
 24 47  1  0
 24 48  1  0
 24 49  1  0
 25 50  1  0
 25 51  1  0
 25 52  1  0
M  ISO  1  26  99
M  END
>  <ALOGPS_LOGP>  (1) 
0.13

>  <ALOGPS_LOGS>  (1) 
-3.88

>  <ALOGPS_SOLUBILITY>  (1) 
4.63e-02 g/l

>  <DATABASE_ID>  (1) 
DB09164

>  <DATABASE_NAME>  (1) 
drugbank

>  <DRUGBANK_ID>  (1) 
DB09164

>  <DRUG_GROUPS>  (1) 
approved

>  <EXACT_MASS>  (1) 
449.090426499

>  <FORMULA>  (1) 
C18H26N2O5Tc

>  <GENERIC_NAME>  (1) 
Technetium Tc-99m disofenin

>  <INCHI_IDENTIFIER>  (1) 
InChI=1S/C18H26N2O5.Tc/c1-11(2)13-6-5-7-14(12(3)4)18(13)19-15(21)8-20(9-16(22)23)10-17(24)25;/h5-7,11-12H,8-10H2,1-4H3,(H,19,21)(H,22,23)(H,24,25);/i;1+2

>  <INCHI_KEY>  (1) 
JNJYQGLIZTUSCW-NLQOEHMXSA-N

>  <INTERNATIONAL_BRANDS>  (1) 
Hepatolite

>  <JCHEM_ACCEPTOR_COUNT>  (1) 
6

>  <JCHEM_ATOM_COUNT>  (1) 
52

>  <JCHEM_AVERAGE_POLARIZABILITY>  (1) 
37.20865095413314

>  <JCHEM_BIOAVAILABILITY>  (1) 
1

>  <JCHEM_DONOR_COUNT>  (1) 
3

>  <JCHEM_FORMAL_CHARGE>  (1) 
0

>  <JCHEM_GHOSE_FILTER>  (1) 
1

>  <JCHEM_IUPAC>  (1) 
2-[({[2,6-bis(propan-2-yl)phenyl]carbamoyl}methyl)(carboxymethyl)amino]acetic acid (99Tc)technetium

>  <JCHEM_LOGP>  (1) 
1.006154069456691

>  <JCHEM_MDDR_LIKE_RULE>  (1) 
0

>  <JCHEM_NUMBER_OF_RINGS>  (1) 
1

>  <JCHEM_PHYSIOLOGICAL_CHARGE>  (1) 
-1

>  <JCHEM_PKA>  (1) 
5.507997421536211

>  <JCHEM_PKA_STRONGEST_ACIDIC>  (1) 
3.114563828055202

>  <JCHEM_PKA_STRONGEST_BASIC>  (1) 
2.4116431743527085

>  <JCHEM_POLAR_SURFACE_AREA>  (1) 
106.94000000000001

>  <JCHEM_REFRACTIVITY>  (1) 
94.90079999999998

>  <JCHEM_ROTATABLE_BOND_COUNT>  (1) 
9

>  <JCHEM_RULE_OF_FIVE>  (1) 
1

>  <JCHEM_TRADITIONAL_IUPAC>  (1) 
[(carboxymethyl)({[(2,6-diisopropylphenyl)carbamoyl]methyl})amino]acetic acid (99Tc)technetium

>  <JCHEM_VEBER_RULE>  (1) 
0

>  <MOLECULAR_WEIGHT>  (1) 
449.321

>  <PRODUCTS>  (1) 
Kit for the Preparation of Technetium Tc99m Disofenin

>  <SMILES>  (1) 
[99Tc].CC(C)C1=CC=CC(C(C)C)=C1NC(=O)CN(CC(O)=O)CC(O)=O

>  <SYNONYMS>  (1) 
99mTc-DISIDA; 99mTc-Disofenin; Technetium (99mTc) disofenin; Technetium Tc 99m Disofenin; Technetium-99m-Diisopropyliminodiacetic Acid

$$$$
