
     RDKit          2D

 42 35  0  0  0  0  0  0  0  0999 V2000
    0.1105    1.2375    0.0000 C   0  0  0  0  0  0  0  0  0  0  0  0
   -0.6039    1.6500    0.0000 C   0  0  0  0  0  0  0  0  0  0  0  0
   -0.6039    2.4750    0.0000 N   0  0  0  0  0  0  0  0  0  0  0  0
    0.1105    2.8875    0.0000 C   0  0  0  0  0  0  0  0  0  0  0  0
    0.1105    3.7125    0.0000 P   0  0  0  0  0  0  0  0  0  0  0  0
    0.9355    3.7125    0.0000 O   0  0  0  0  0  0  0  0  0  0  0  0
    0.1105    4.5375    0.0000 O   0  0  0  0  0  0  0  0  0  0  0  0
   -0.7145    3.7125    0.0000 O   0  0  0  0  0  0  0  0  0  0  0  0
   -1.3184    2.8875    0.0000 C   0  0  0  0  0  0  0  0  0  0  0  0
   -2.0329    2.4750    0.0000 P   0  0  0  0  0  0  0  0  0  0  0  0
   -2.7474    2.0625    0.0000 O   0  0  0  0  0  0  0  0  0  0  0  0
   -1.6204    1.7605    0.0000 O   0  0  0  0  0  0  0  0  0  0  0  0
   -2.4454    3.1895    0.0000 O   0  0  0  0  0  0  0  0  0  0  0  0
    0.1105    0.4125    0.0000 N   0  0  0  0  0  0  0  0  0  0  0  0
   -0.6039    0.0000    0.0000 C   0  0  0  0  0  0  0  0  0  0  0  0
   -0.6039   -0.8250    0.0000 P   0  0  0  0  0  0  0  0  0  0  0  0
    0.2211   -0.8250    0.0000 O   0  0  0  0  0  0  0  0  0  0  0  0
   -1.4289   -0.8250    0.0000 O   0  0  0  0  0  0  0  0  0  0  0  0
   -0.6039   -1.6500    0.0000 O   0  0  0  0  0  0  0  0  0  0  0  0
    0.8250    0.0000    0.0000 C   0  0  0  0  0  0  0  0  0  0  0  0
    1.5395    0.4125    0.0000 P   0  0  0  0  0  0  0  0  0  0  0  0
    2.2539    0.8250    0.0000 O   0  0  0  0  0  0  0  0  0  0  0  0
    1.9520   -0.3020    0.0000 O   0  0  0  0  0  0  0  0  0  0  0  0
    1.1270    1.1270    0.0000 O   0  0  0  0  0  0  0  0  0  0  0  0
    0.1105    5.3625    0.0000 Na  0  0  0  0  0  0  0  0  0  0  0  0
   -1.5395    3.7125    0.0000 Na  0  0  0  0  0  0  0  0  0  0  0  0
   -1.2079    1.0461    0.0000 Na  0  0  0  0  0  0  0  0  0  0  0  0
   -2.8579    3.9039    0.0000 Na  0  0  0  0  0  0  0  0  0  0  0  0
   -2.2539   -0.8250    0.0000 Na  0  0  0  0  0  0  0  0  0  0  0  0
   -0.6039   -2.4750    0.0000 Sm  0  0  0  0  0  0  0  0  0  0  0  0
    0.0000    0.0000    0.0000 H   0  0  0  0  0  0  0  0  0  0  0  0
    0.0000    0.0000    0.0000 H   0  0  0  0  0  0  0  0  0  0  0  0
    0.0000    0.0000    0.0000 H   0  0  0  0  0  0  0  0  0  0  0  0
    0.0000    0.0000    0.0000 H   0  0  0  0  0  0  0  0  0  0  0  0
    0.0000    0.0000    0.0000 H   0  0  0  0  0  0  0  0  0  0  0  0
    0.0000    0.0000    0.0000 H   0  0  0  0  0  0  0  0  0  0  0  0
    0.0000    0.0000    0.0000 H   0  0  0  0  0  0  0  0  0  0  0  0
    0.0000    0.0000    0.0000 H   0  0  0  0  0  0  0  0  0  0  0  0
    0.0000    0.0000    0.0000 H   0  0  0  0  0  0  0  0  0  0  0  0
    0.0000    0.0000    0.0000 H   0  0  0  0  0  0  0  0  0  0  0  0
    0.0000    0.0000    0.0000 H   0  0  0  0  0  0  0  0  0  0  0  0
    0.0000    0.0000    0.0000 H   0  0  0  0  0  0  0  0  0  0  0  0
  1  2  1  0
  2  3  1  0
  3  4  1  0
  4  5  1  0
  5  6  2  0
  5  7  1  0
  5  8  1  0
  3  9  1  0
  9 10  1  0
 10 11  2  0
 10 12  1  0
 10 13  1  0
  1 14  1  0
 14 15  1  0
 15 16  1  0
 16 17  2  0
 16 18  1  0
 16 19  1  0
 14 20  1  0
 20 21  1  0
 21 22  2  0
 21 23  1  0
 21 24  1  0
  1 31  1  0
  1 32  1  0
  2 33  1  0
  2 34  1  0
  4 35  1  0
  4 36  1  0
  9 37  1  0
  9 38  1  0
 15 39  1  0
 15 40  1  0
 20 41  1  0
 20 42  1  0
M  CHG  8   7  -1   8  -1  12  -1  13  -1  18  -1  19  -1  23  -1  24  -1
M  CHG  6  25   1  26   1  27   1  28   1  29   1  30   3
M  ISO  1  30 153
M  END
>  <ALOGPS_LOGP>  (1) 
0.96

>  <ALOGPS_LOGS>  (1) 
-1.45

>  <ALOGPS_SOLUBILITY>  (1) 
2.83e+01 g/l

>  <DATABASE_ID>  (1) 
DB09509

>  <DATABASE_NAME>  (1) 
drugbank

>  <DRUGBANK_ID>  (1) 
DB09509

>  <DRUG_GROUPS>  (1) 
approved

>  <EXACT_MASS>  (1) 
695.80501213

>  <FORMULA>  (1) 
C6H12N2Na5O12P4Sm

>  <GENERIC_NAME>  (1) 
Samarium Sm-153 lexidronam pentasodium

>  <INCHI_IDENTIFIER>  (1) 
InChI=1S/C6H20N2O12P4.5Na.Sm/c9-21(10,11)3-7(4-22(12,13)14)1-2-8(5-23(15,16)17)6-24(18,19)20;;;;;;/h1-6H2,(H2,9,10,11)(H2,12,13,14)(H2,15,16,17)(H2,18,19,20);;;;;;/q;5*+1;+3/p-8/i;;;;;;1+3

>  <INCHI_KEY>  (1) 
SZZACTGRBZTAKY-NKNBZPHVSA-F

>  <JCHEM_ACCEPTOR_COUNT>  (1) 
14

>  <JCHEM_ATOM_COUNT>  (1) 
42

>  <JCHEM_AVERAGE_POLARIZABILITY>  (1) 
30.10438187323843

>  <JCHEM_BIOAVAILABILITY>  (1) 
0

>  <JCHEM_DONOR_COUNT>  (1) 
0

>  <JCHEM_FORMAL_CHARGE>  (1) 
0

>  <JCHEM_GHOSE_FILTER>  (1) 
0

>  <JCHEM_IUPAC>  (1) 
(153Sm)samarium(3+) ion pentasodium [({2-[bis(phosphonomethyl)amino]ethyl}(phosphonomethyl)amino)methyl]phosphonate

>  <JCHEM_LOGP>  (1) 
-4.230980740666666

>  <JCHEM_MDDR_LIKE_RULE>  (1) 
0

>  <JCHEM_NUMBER_OF_RINGS>  (1) 
0

>  <JCHEM_PHYSIOLOGICAL_CHARGE>  (1) 
-5

>  <JCHEM_PKA>  (1) 
1.38155508294509

>  <JCHEM_PKA_STRONGEST_ACIDIC>  (1) 
0.9554796837304784

>  <JCHEM_POLAR_SURFACE_AREA>  (1) 
259.24

>  <JCHEM_REFRACTIVITY>  (1) 
71.3404

>  <JCHEM_ROTATABLE_BOND_COUNT>  (1) 
11

>  <JCHEM_RULE_OF_FIVE>  (1) 
0

>  <JCHEM_TRADITIONAL_IUPAC>  (1) 
(153Sm)samarium(3+) ion pentasodium ({2-[bis(phosphonomethyl)amino]ethyl}(phosphonomethyl)amino)methylphosphonate

>  <JCHEM_VEBER_RULE>  (1) 
0

>  <MOLECULAR_WEIGHT>  (1) 
695.93

>  <PRODUCTS>  (1) 
Quadramet

>  <SMILES>  (1) 
[Na+].[Na+].[Na+].[Na+].[Na+].[153Sm+3].[O-]P([O-])(=O)CN(CCN(CP([O-])([O-])=O)CP([O-])([O-])=O)CP([O-])([O-])=O

>  <SYNONYMS>  (1) 
Samarium (153 Sm) lexidronam pentasodium

$$$$
