
     RDKit          2D

 57 61  0  0  1  0  0  0  0  0999 V2000
    0.7477   -5.5585    0.0000 C   0  0  0  0  0  0  0  0  0  0  0  0
    0.1957   -4.9454    0.0000 C   0  0  0  0  0  0  0  0  0  0  0  0
    0.4506   -4.1608    0.0000 C   0  0  0  0  0  0  0  0  0  0  0  0
    1.2576   -3.9892    0.0000 O   0  0  0  0  0  0  0  0  0  0  0  0
   -0.1013   -3.5477    0.0000 N   0  0  0  0  0  0  0  0  0  0  0  0
   -0.9083   -3.7192    0.0000 C   0  0  0  0  0  0  0  0  0  0  0  0
   -1.4603   -3.1061    0.0000 C   0  0  0  0  0  0  0  0  0  0  0  0
   -1.2054   -2.3215    0.0000 C   0  0  0  0  0  0  0  0  0  0  0  0
   -0.3984   -2.1500    0.0000 C   0  0  0  0  0  0  0  0  0  0  0  0
    0.1535   -2.7630    0.0000 C   0  0  0  0  0  0  0  0  0  0  0  0
   -0.1435   -1.3653    0.0000 N   0  0  0  0  0  0  0  0  0  0  0  0
    0.6411   -1.1104    0.0000 C   0  0  0  0  0  0  0  0  0  0  0  0
    0.6411   -0.2854    0.0000 C   0  0  0  0  0  0  0  0  0  0  0  0
   -0.1435   -0.0305    0.0000 C   0  0  0  0  0  0  0  0  0  0  0  0
   -0.6284   -0.6979    0.0000 N   0  0  0  0  0  0  0  0  0  0  0  0
   -0.3984    0.7541    0.0000 C   0  0  0  0  0  0  0  0  0  0  0  0
   -1.2054    0.9256    0.0000 C   0  0  0  0  0  0  0  0  0  0  0  0
   -1.4603    1.7102    0.0000 C   0  0  0  0  0  0  0  0  0  0  0  0
   -0.9083    2.3233    0.0000 C   0  0  0  0  0  0  0  0  0  0  0  0
   -0.1013    2.1518    0.0000 C   0  0  0  0  0  0  0  0  0  0  0  0
    0.1535    1.3672    0.0000 C   0  0  0  0  0  0  0  0  0  0  0  0
   -1.1632    3.1079    0.0000 O   0  0  0  0  0  0  0  0  0  0  0  0
   -0.6112    3.7210    0.0000 C   0  0  0  0  0  0  0  0  0  0  0  0
   -0.8661    4.5056    0.0000 C   0  0  0  0  0  0  0  0  0  0  0  0
   -0.3141    5.1187    0.0000 C   0  0  0  0  0  0  0  0  0  0  0  0
    0.4928    4.9472    0.0000 C   0  0  0  0  0  0  0  0  0  0  0  0
    0.7477    4.1626    0.0000 C   0  0  0  0  0  0  0  0  0  0  0  0
    0.1957    3.5495    0.0000 C   0  0  0  0  0  0  0  0  0  0  0  0
    1.3555    0.1270    0.0000 C   0  0  0  0  0  0  0  0  0  0  0  0
    2.0700   -0.2854    0.0000 N   0  0  0  0  0  0  0  0  0  0  0  0
    2.0700   -1.1104    0.0000 C   0  0  0  0  0  0  0  0  0  0  0  0
    1.3555   -1.5229    0.0000 N   0  0  0  0  0  0  0  0  0  0  0  0
    1.3555    0.9520    0.0000 N   0  0  0  0  0  0  0  0  0  0  0  0
    0.0000    0.0000    0.0000 H   0  0  0  0  0  0  0  0  0  0  0  0
    0.0000    0.0000    0.0000 H   0  0  0  0  0  0  0  0  0  0  0  0
    0.0000    0.0000    0.0000 H   0  0  0  0  0  0  0  0  0  0  0  0
    0.0000    0.0000    0.0000 H   0  0  0  0  0  0  0  0  0  0  0  0
    0.0000    0.0000    0.0000 H   0  0  0  0  0  0  0  0  0  0  0  0
    0.0000    0.0000    0.0000 H   0  0  0  0  0  0  0  0  0  0  0  0
    0.0000    0.0000    0.0000 H   0  0  0  0  0  0  0  0  0  0  0  0
    0.0000    0.0000    0.0000 H   0  0  0  0  0  0  0  0  0  0  0  0
    0.0000    0.0000    0.0000 H   0  0  0  0  0  0  0  0  0  0  0  0
    0.0000    0.0000    0.0000 H   0  0  0  0  0  0  0  0  0  0  0  0
    0.0000    0.0000    0.0000 H   0  0  0  0  0  0  0  0  0  0  0  0
    0.0000    0.0000    0.0000 H   0  0  0  0  0  0  0  0  0  0  0  0
    0.0000    0.0000    0.0000 H   0  0  0  0  0  0  0  0  0  0  0  0
    0.0000    0.0000    0.0000 H   0  0  0  0  0  0  0  0  0  0  0  0
    0.0000    0.0000    0.0000 H   0  0  0  0  0  0  0  0  0  0  0  0
    0.0000    0.0000    0.0000 H   0  0  0  0  0  0  0  0  0  0  0  0
    0.0000    0.0000    0.0000 H   0  0  0  0  0  0  0  0  0  0  0  0
    0.0000    0.0000    0.0000 H   0  0  0  0  0  0  0  0  0  0  0  0
    0.0000    0.0000    0.0000 H   0  0  0  0  0  0  0  0  0  0  0  0
    0.0000    0.0000    0.0000 H   0  0  0  0  0  0  0  0  0  0  0  0
    0.0000    0.0000    0.0000 H   0  0  0  0  0  0  0  0  0  0  0  0
    0.0000    0.0000    0.0000 H   0  0  0  0  0  0  0  0  0  0  0  0
    0.0000    0.0000    0.0000 H   0  0  0  0  0  0  0  0  0  0  0  0
    0.0000    0.0000    0.0000 H   0  0  0  0  0  0  0  0  0  0  0  0
  1  2  2  3
  2  3  1  0
  3  4  2  0
  3  5  1  0
  5  6  1  0
  6  7  1  0
  7  8  1  0
  8  9  1  0
  9 10  1  0
  5 10  1  0
  9 11  1  1
 11 12  1  0
 12 13  2  0
 13 14  1  0
 14 15  2  0
 11 15  1  0
 14 16  1  0
 16 17  2  0
 17 18  1  0
 18 19  2  0
 19 20  1  0
 20 21  2  0
 16 21  1  0
 19 22  1  0
 22 23  1  0
 23 24  2  0
 24 25  1  0
 25 26  2  0
 26 27  1  0
 27 28  2  0
 23 28  1  0
 13 29  1  0
 29 30  2  0
 30 31  1  0
 31 32  2  0
 12 32  1  0
 29 33  1  0
  1 34  1  0
  1 35  1  0
  2 36  1  0
  6 37  1  0
  6 38  1  0
  7 39  1  0
  7 40  1  0
  8 41  1  0
  8 42  1  0
  9 43  1  0
 10 44  1  0
 10 45  1  0
 17 46  1  0
 18 47  1  0
 20 48  1  0
 21 49  1  0
 24 50  1  0
 25 51  1  0
 26 52  1  0
 27 53  1  0
 28 54  1  0
 31 55  1  0
 33 56  1  0
 33 57  1  0
M  END
>  <ALOGPS_LOGP>  (1) 
2.76

>  <ALOGPS_LOGS>  (1) 
-4.34

>  <ALOGPS_SOLUBILITY>  (1) 
2.03e-02 g/l

>  <DATABASE_ID>  (1) 
DB09053

>  <DATABASE_NAME>  (1) 
drugbank

>  <DRUGBANK_ID>  (1) 
DB09053

>  <DRUG_GROUPS>  (1) 
approved

>  <EXACT_MASS>  (1) 
440.196074037

>  <FORMULA>  (1) 
C25H24N6O2

>  <GENERIC_NAME>  (1) 
Ibrutinib

>  <INCHI_IDENTIFIER>  (1) 
InChI=1S/C25H24N6O2/c1-2-21(32)30-14-6-7-18(15-30)31-25-22(24(26)27-16-28-25)23(29-31)17-10-12-20(13-11-17)33-19-8-4-3-5-9-19/h2-5,8-13,16,18H,1,6-7,14-15H2,(H2,26,27,28)/t18-/m1/s1

>  <INCHI_KEY>  (1) 
XYFPWWZEPKGCCK-GOSISDBHSA-N

>  <JCHEM_ACCEPTOR_COUNT>  (1) 
5

>  <JCHEM_ATOM_COUNT>  (1) 
57

>  <JCHEM_AVERAGE_POLARIZABILITY>  (1) 
47.8409796208888

>  <JCHEM_BIOAVAILABILITY>  (1) 
1

>  <JCHEM_DONOR_COUNT>  (1) 
1

>  <JCHEM_FORMAL_CHARGE>  (1) 
0

>  <JCHEM_GHOSE_FILTER>  (1) 
0

>  <JCHEM_IUPAC>  (1) 
1-[(3R)-3-[4-amino-3-(4-phenoxyphenyl)-1H-pyrazolo[3,4-d]pyrimidin-1-yl]piperidin-1-yl]prop-2-en-1-one

>  <JCHEM_LOGP>  (1) 
3.630226299333334

>  <JCHEM_MDDR_LIKE_RULE>  (1) 
0

>  <JCHEM_NUMBER_OF_RINGS>  (1) 
5

>  <JCHEM_PHYSIOLOGICAL_CHARGE>  (1) 
0

>  <JCHEM_PKA_STRONGEST_ACIDIC>  (1) 
19.69607468213113

>  <JCHEM_PKA_STRONGEST_BASIC>  (1) 
6.577372858658654

>  <JCHEM_POLAR_SURFACE_AREA>  (1) 
99.16

>  <JCHEM_REFRACTIVITY>  (1) 
138.07410000000002

>  <JCHEM_ROTATABLE_BOND_COUNT>  (1) 
5

>  <JCHEM_RULE_OF_FIVE>  (1) 
1

>  <JCHEM_TRADITIONAL_IUPAC>  (1) 
ibrutinib

>  <JCHEM_VEBER_RULE>  (1) 
0

>  <MOLECULAR_WEIGHT>  (1) 
440.507

>  <PRODUCTS>  (1) 
Imbruvica

>  <SMILES>  (1) 
NC1=NC=NC2=C1C(=NN2[C@@H]1CCCN(C1)C(=O)C=C)C1=CC=C(OC2=CC=CC=C2)C=C1

>  <SYNONYMS>  (1) 
1-[(3R)-3-[4-Amino-3-(4-phenoxyphenyl)-1H-pyrazolo[3,4-d]pyrimidin-1-yl]piperidin-1-yl]prop-2-en-1-one

$$$$
