
     RDKit          2D

 77 81  0  0  0  0  0  0  0  0999 V2000
    2.9045   -0.1985    0.0000 C   0  0  0  0  0  0  0  0  0  0  0  0
    2.9004   -1.0234    0.0000 C   0  0  0  0  0  0  0  0  0  0  0  0
    3.6211    0.2104    0.0000 C   0  0  0  0  0  0  0  0  0  0  0  0
    2.1922    0.2175    0.0000 N   0  0  0  0  0  0  0  0  0  0  0  0
    1.3673    1.0426    0.0000 C   0  0  0  0  0  0  0  0  0  0  0  0
    1.3673    0.2175    0.0000 C   0  0  0  0  0  0  0  0  0  0  0  0
    2.1922    1.0426    0.0000 C   0  0  0  0  0  0  0  0  0  0  0  0
   -2.1992    2.2758    0.0000 C   0  0  0  0  0  0  0  0  0  0  0  0
   -2.1992    1.4507    0.0000 C   0  0  0  0  0  0  0  0  0  0  0  0
   -1.4830    1.0383    0.0000 C   0  0  0  0  0  0  0  0  0  0  0  0
   -0.7711    1.4507    0.0000 C   0  0  0  0  0  0  0  0  0  0  0  0
   -0.7711    2.2758    0.0000 C   0  0  0  0  0  0  0  0  0  0  0  0
   -1.4830    2.6883    0.0000 N   0  0  0  0  0  0  0  0  0  0  0  0
   -1.4819    0.2132    0.0000 C   0  0  0  0  0  0  0  0  0  0  0  0
   -2.1922   -0.1971    0.0000 C   0  0  0  0  0  0  0  0  0  0  0  0
   -2.1912   -1.0220    0.0000 C   0  0  0  0  0  0  0  0  0  0  0  0
   -1.4763   -1.4336    0.0000 C   0  0  0  0  0  0  0  0  0  0  0  0
   -0.7623   -1.0202    0.0000 C   0  0  0  0  0  0  0  0  0  0  0  0
   -0.7634   -0.1953    0.0000 C   0  0  0  0  0  0  0  0  0  0  0  0
   -2.9117    1.0383    0.0000 C   0  0  0  0  0  0  0  0  0  0  0  0
   -3.6242    1.4507    0.0000 O   0  0  0  0  0  0  0  0  0  0  0  0
   -4.3367    1.0383    0.0000 C   0  0  0  0  0  0  0  0  0  0  0  0
   -5.0491    1.4507    0.0000 C   0  0  0  0  0  0  0  0  0  0  0  0
   -2.9117    0.2132    0.0000 O   0  0  0  0  0  0  0  0  0  0  0  0
   -4.3367    0.2132    0.0000 C   0  0  0  0  0  0  0  0  0  0  0  0
   -2.9134    2.6887    0.0000 C   0  0  0  0  0  0  0  0  0  0  0  0
   -0.0564    2.6877    0.0000 N   0  0  0  0  0  0  0  0  0  0  0  0
   -0.0618    1.0426    0.0000 C   0  0  0  0  0  0  0  0  0  0  0  0
    0.6506    1.4550    0.0000 O   0  0  0  0  0  0  0  0  0  0  0  0
    4.3284   -0.2077    0.0000 C   0  0  0  0  0  0  0  0  0  0  0  0
    5.0450    0.2011    0.0000 C   0  0  0  0  0  0  0  0  0  0  0  0
    5.0491    1.0261    0.0000 C   0  0  0  0  0  0  0  0  0  0  0  0
    4.3368    1.4421    0.0000 C   0  0  0  0  0  0  0  0  0  0  0  0
    3.6201    1.0333    0.0000 C   0  0  0  0  0  0  0  0  0  0  0  0
   -0.0474   -1.4317    0.0000 N   0  0  0  0  0  0  0  0  0  0  0  0
   -0.0608    0.2175    0.0000 O   0  0  0  0  0  0  0  0  0  0  0  0
   -0.0463   -2.2568    0.0000 O   0  0  0  0  0  0  0  0  0  0  0  0
    0.8725   -0.7712    0.0000 O   0  0  0  0  0  0  0  0  0  0  0  0
    2.1729   -1.4388    0.0000 C   0  0  0  0  0  0  0  0  0  0  0  0
    2.1690   -2.2698    0.0000 C   0  0  0  0  0  0  0  0  0  0  0  0
    2.8865   -2.6887    0.0000 C   0  0  0  0  0  0  0  0  0  0  0  0
    3.6141   -2.2733    0.0000 C   0  0  0  0  0  0  0  0  0  0  0  0
    3.6180   -1.4423    0.0000 C   0  0  0  0  0  0  0  0  0  0  0  0
    0.0000    0.0000    0.0000 H   0  0  0  0  0  0  0  0  0  0  0  0
    0.0000    0.0000    0.0000 H   0  0  0  0  0  0  0  0  0  0  0  0
    0.0000    0.0000    0.0000 H   0  0  0  0  0  0  0  0  0  0  0  0
    0.0000    0.0000    0.0000 H   0  0  0  0  0  0  0  0  0  0  0  0
    0.0000    0.0000    0.0000 H   0  0  0  0  0  0  0  0  0  0  0  0
    0.0000    0.0000    0.0000 H   0  0  0  0  0  0  0  0  0  0  0  0
    0.0000    0.0000    0.0000 H   0  0  0  0  0  0  0  0  0  0  0  0
    0.0000    0.0000    0.0000 H   0  0  0  0  0  0  0  0  0  0  0  0
    0.0000    0.0000    0.0000 H   0  0  0  0  0  0  0  0  0  0  0  0
    0.0000    0.0000    0.0000 H   0  0  0  0  0  0  0  0  0  0  0  0
    0.0000    0.0000    0.0000 H   0  0  0  0  0  0  0  0  0  0  0  0
    0.0000    0.0000    0.0000 H   0  0  0  0  0  0  0  0  0  0  0  0
    0.0000    0.0000    0.0000 H   0  0  0  0  0  0  0  0  0  0  0  0
    0.0000    0.0000    0.0000 H   0  0  0  0  0  0  0  0  0  0  0  0
    0.0000    0.0000    0.0000 H   0  0  0  0  0  0  0  0  0  0  0  0
    0.0000    0.0000    0.0000 H   0  0  0  0  0  0  0  0  0  0  0  0
    0.0000    0.0000    0.0000 H   0  0  0  0  0  0  0  0  0  0  0  0
    0.0000    0.0000    0.0000 H   0  0  0  0  0  0  0  0  0  0  0  0
    0.0000    0.0000    0.0000 H   0  0  0  0  0  0  0  0  0  0  0  0
    0.0000    0.0000    0.0000 H   0  0  0  0  0  0  0  0  0  0  0  0
    0.0000    0.0000    0.0000 H   0  0  0  0  0  0  0  0  0  0  0  0
    0.0000    0.0000    0.0000 H   0  0  0  0  0  0  0  0  0  0  0  0
    0.0000    0.0000    0.0000 H   0  0  0  0  0  0  0  0  0  0  0  0
    0.0000    0.0000    0.0000 H   0  0  0  0  0  0  0  0  0  0  0  0
    0.0000    0.0000    0.0000 H   0  0  0  0  0  0  0  0  0  0  0  0
    0.0000    0.0000    0.0000 H   0  0  0  0  0  0  0  0  0  0  0  0
    0.0000    0.0000    0.0000 H   0  0  0  0  0  0  0  0  0  0  0  0
    0.0000    0.0000    0.0000 H   0  0  0  0  0  0  0  0  0  0  0  0
    0.0000    0.0000    0.0000 H   0  0  0  0  0  0  0  0  0  0  0  0
    0.0000    0.0000    0.0000 H   0  0  0  0  0  0  0  0  0  0  0  0
    0.0000    0.0000    0.0000 H   0  0  0  0  0  0  0  0  0  0  0  0
    0.0000    0.0000    0.0000 H   0  0  0  0  0  0  0  0  0  0  0  0
    0.0000    0.0000    0.0000 H   0  0  0  0  0  0  0  0  0  0  0  0
    0.0000    0.0000    0.0000 H   0  0  0  0  0  0  0  0  0  0  0  0
 20 21  1  0
  8  9  2  0
 21 22  1  0
  9 10  1  0
 22 23  1  0
 10 11  1  0
 20 24  2  0
 11 12  2  0
 22 25  1  0
 12 13  1  0
  8 26  1  0
 13  8  1  0
 12 27  1  0
  4  7  1  0
 11 28  1  0
 10 14  1  0
 28 29  1  0
 29  5  1  0
  7  5  1  0
  1  4  1  0
  1  3  1  0
  1  2  1  0
  3 30  2  0
 30 31  1  0
 31 32  2  0
 32 33  1  0
 33 34  2  0
 34  3  1  0
 14 15  2  0
 15 16  1  0
 16 17  2  0
 17 18  1  0
 18 19  2  0
 19 14  1  0
 18 35  1  0
  5  6  1  0
 28 36  2  0
  9 20  1  0
 35 37  1  0
  6  4  1  0
 35 38  2  0
  2 39  2  0
 39 40  1  0
 40 41  2  0
 41 42  1  0
 42 43  2  0
  2 43  1  0
  1 44  1  0
  5 45  1  0
  6 46  1  0
  6 47  1  0
  7 48  1  0
  7 49  1  0
 10 50  1  0
 13 51  1  0
 15 52  1  0
 16 53  1  0
 17 54  1  0
 19 55  1  0
 22 56  1  0
 23 57  1  0
 23 58  1  0
 23 59  1  0
 25 60  1  0
 25 61  1  0
 25 62  1  0
 26 63  1  0
 26 64  1  0
 26 65  1  0
 27 66  1  0
 27 67  1  0
 30 68  1  0
 31 69  1  0
 32 70  1  0
 33 71  1  0
 34 72  1  0
 39 73  1  0
 40 74  1  0
 41 75  1  0
 42 76  1  0
 43 77  1  0
M  CHG  2  35   1  37  -1
M  END
>  <ALOGPS_LOGP>  (1) 
5.12

>  <ALOGPS_LOGS>  (1) 
-5.85

>  <ALOGPS_SOLUBILITY>  (1) 
8.20e-04 g/l

>  <DATABASE_ID>  (1) 
DB09230

>  <DATABASE_NAME>  (1) 
drugbank

>  <DRUGBANK_ID>  (1) 
DB09230

>  <DRUG_GROUPS>  (1) 
approved; investigational

>  <EXACT_MASS>  (1) 
582.247834831

>  <FORMULA>  (1) 
C33H34N4O6

>  <GENERIC_NAME>  (1) 
Azelnidipine

>  <INCHI_IDENTIFIER>  (1) 
InChI=1S/C33H34N4O6/c1-20(2)42-32(38)27-21(3)35-31(34)29(28(27)24-15-10-16-25(17-24)37(40)41)33(39)43-26-18-36(19-26)30(22-11-6-4-7-12-22)23-13-8-5-9-14-23/h4-17,20,26,28,30,35H,18-19,34H2,1-3H3

>  <INCHI_KEY>  (1) 
ZKFQEACEUNWPMT-UHFFFAOYSA-N

>  <INTERNATIONAL_BRANDS>  (1) 
Calblock

>  <JCHEM_ACCEPTOR_COUNT>  (1) 
7

>  <JCHEM_ATOM_COUNT>  (1) 
77

>  <JCHEM_AVERAGE_POLARIZABILITY>  (1) 
60.76202843942052

>  <JCHEM_BIOAVAILABILITY>  (1) 
0

>  <JCHEM_DONOR_COUNT>  (1) 
2

>  <JCHEM_FORMAL_CHARGE>  (1) 
0

>  <JCHEM_GHOSE_FILTER>  (1) 
0

>  <JCHEM_IUPAC>  (1) 
3-[1-(diphenylmethyl)azetidin-3-yl] 5-propan-2-yl 2-amino-6-methyl-4-(3-nitrophenyl)-1,4-dihydropyridine-3,5-dicarboxylate

>  <JCHEM_LOGP>  (1) 
5.573038494333335

>  <JCHEM_MDDR_LIKE_RULE>  (1) 
1

>  <JCHEM_NUMBER_OF_RINGS>  (1) 
5

>  <JCHEM_PHYSIOLOGICAL_CHARGE>  (1) 
0

>  <JCHEM_PKA>  (1) 
19.965278555922463

>  <JCHEM_PKA_STRONGEST_ACIDIC>  (1) 
19.876218641265307

>  <JCHEM_PKA_STRONGEST_BASIC>  (1) 
6.002134587263092

>  <JCHEM_POLAR_SURFACE_AREA>  (1) 
137.03

>  <JCHEM_REFRACTIVITY>  (1) 
172.06049999999996

>  <JCHEM_ROTATABLE_BOND_COUNT>  (1) 
11

>  <JCHEM_RULE_OF_FIVE>  (1) 
0

>  <JCHEM_TRADITIONAL_IUPAC>  (1) 
azelnidipine

>  <JCHEM_VEBER_RULE>  (1) 
0

>  <MOLECULAR_WEIGHT>  (1) 
582.657

>  <SMILES>  (1) 
CC(C)OC(=O)C1=C(C)NC(N)=C(C1C1=CC=CC(=C1)[N+]([O-])=O)C(=O)OC1CN(C1)C(C1=CC=CC=C1)C1=CC=CC=C1

$$$$
