
     RDKit          2D

  6  3  0  0  0  0  0  0  0  0999 V2000
   -0.9484    0.2471    0.0000 O   0  0  0  0  0  0  0  0  0  0  0  0
   -0.9484    1.0721    0.0000 C   0  0  0  0  0  0  0  0  0  0  0  0
   -0.2884    1.4847    0.0000 O   0  0  0  0  0  0  0  0  0  0  0  0
   -1.6909    1.4847    0.0000 O   0  0  0  0  0  0  0  0  0  0  0  0
    0.7834   -1.4847    0.0000 Na  0  0  0  0  0  0  0  0  0  0  0  0
    1.6909   -1.4847    0.0000 Na  0  0  0  0  0  0  0  0  0  0  0  0
  1  2  1  0
  2  3  1  0
  2  4  2  0
M  CHG  4   1  -1   3  -1   5   1   6   1
M  END
>  <ALOGPS_LOGP>  (1) 
-0.34

>  <ALOGPS_LOGS>  (1) 
0.76

>  <ALOGPS_SOLUBILITY>  (1) 
6.07e+02 g/l

>  <DATABASE_ID>  (1) 
DB09460

>  <DATABASE_NAME>  (1) 
drugbank

>  <DRUGBANK_ID>  (1) 
DB09460

>  <DRUG_GROUPS>  (1) 
approved

>  <EXACT_MASS>  (1) 
105.964283216

>  <FORMULA>  (1) 
CNa2O3

>  <GENERIC_NAME>  (1) 
Sodium carbonate

>  <INCHI_IDENTIFIER>  (1) 
InChI=1S/CH2O3.2Na/c2-1(3)4;;/h(H2,2,3,4);;/q;2*+1/p-2

>  <INCHI_KEY>  (1) 
CDBYLPFSWZWCQE-UHFFFAOYSA-L

>  <JCHEM_ACCEPTOR_COUNT>  (1) 
3

>  <JCHEM_AVERAGE_POLARIZABILITY>  (1) 
3.5155256860644877

>  <JCHEM_BIOAVAILABILITY>  (1) 
1

>  <JCHEM_DONOR_COUNT>  (1) 
0

>  <JCHEM_FORMAL_CHARGE>  (1) 
0

>  <JCHEM_GHOSE_FILTER>  (1) 
0

>  <JCHEM_IUPAC>  (1) 
disodium carbonate

>  <JCHEM_LOGP>  (1) 
0.25005136566666664

>  <JCHEM_MDDR_LIKE_RULE>  (1) 
0

>  <JCHEM_NUMBER_OF_RINGS>  (1) 
0

>  <JCHEM_PHYSIOLOGICAL_CHARGE>  (1) 
-1

>  <JCHEM_PKA>  (1) 
10.638414228618219

>  <JCHEM_PKA_STRONGEST_ACIDIC>  (1) 
6.052541895520343

>  <JCHEM_POLAR_SURFACE_AREA>  (1) 
63.19

>  <JCHEM_REFRACTIVITY>  (1) 
31.172400000000003

>  <JCHEM_ROTATABLE_BOND_COUNT>  (1) 
0

>  <JCHEM_RULE_OF_FIVE>  (1) 
1

>  <JCHEM_TRADITIONAL_IUPAC>  (1) 
disodium carbonate

>  <JCHEM_VEBER_RULE>  (1) 
0

>  <MOLECULAR_WEIGHT>  (1) 
105.9884

>  <PRODUCTS>  (1) 
Carbicarb Injection; Sel De Perou; Sels Mexicain; Urologic G for Irrigation; Urologic Solution G

>  <SMILES>  (1) 
[Na+].[Na+].[O-]C([O-])=O

>  <SYNONYMS>  (1) 
Anhydrous sodium carbonate; Carbonic acid sodium salt (1:2); Carbonic acid, disodium salt; Disodium carbonate; disodium carbonate; Natriumkarbonat; Natrum carbonicum; Soda ash; Soda-ash; Sodium carbonate (anhydrous); Sodium carbonate anhydrous; Sodium carbonate, anhydrous; Sodium salt of carbonic acid

$$$$
