
     RDKit          2D

 61 64  0  0  0  0  0  0  0  0999 V2000
    0.4104   -2.9203    0.0000 O   0  0  0  0  0  0  0  0  0  0  0  0
    0.8314   -2.2047    0.0000 C   0  0  0  0  0  0  0  0  0  0  0  0
    0.4104   -1.4891    0.0000 C   0  0  0  0  0  0  0  0  0  0  0  0
    0.8314   -0.7735    0.0000 C   0  0  0  0  0  0  0  0  0  0  0  0
    0.4104   -0.0579    0.0000 C   0  0  0  0  0  0  0  0  0  0  0  0
   -0.4104   -0.0579    0.0000 C   0  0  0  0  0  0  0  0  0  0  0  0
   -0.8314   -0.7735    0.0000 C   0  0  0  0  0  0  0  0  0  0  0  0
   -1.6521   -0.7735    0.0000 C   0  0  0  0  0  0  0  0  0  0  0  0
   -2.0626   -0.0579    0.0000 C   0  0  0  0  0  0  0  0  0  0  0  0
   -2.8940   -0.0579    0.0000 C   0  0  0  0  0  0  0  0  0  0  0  0
   -3.3044   -0.7735    0.0000 C   0  0  0  0  0  0  0  0  0  0  0  0
   -2.8940   -1.4891    0.0000 C   0  0  0  0  0  0  0  0  0  0  0  0
   -2.0626   -1.4891    0.0000 C   0  0  0  0  0  0  0  0  0  0  0  0
   -4.1357   -0.7735    0.0000 O   0  0  0  0  0  0  0  0  0  0  0  0
   -4.5462   -1.4891    0.0000 C   0  0  0  0  0  0  0  0  0  0  0  0
   -5.2619   -1.0786    0.0000 F   0  0  0  0  0  0  0  0  0  0  0  0
   -3.8306   -1.8995    0.0000 F   0  0  0  0  0  0  0  0  0  0  0  0
   -4.9566   -2.2047    0.0000 F   0  0  0  0  0  0  0  0  0  0  0  0
   -0.4104   -1.4891    0.0000 C   0  0  0  0  0  0  0  0  0  0  0  0
   -0.8314   -2.2047    0.0000 C   0  0  0  0  0  0  0  0  0  0  0  0
    1.6521   -2.2047    0.0000 N   0  0  0  0  0  0  0  0  0  0  0  0
    2.0626   -1.4891    0.0000 C   0  0  0  0  0  0  0  0  0  0  0  0
    2.8940   -1.4891    0.0000 C   0  0  0  0  0  0  0  0  0  0  0  0
    3.3044   -0.7735    0.0000 C   0  0  0  0  0  0  0  0  0  0  0  0
    2.8940   -0.0579    0.0000 C   0  0  0  0  0  0  0  0  0  0  0  0
    2.0626   -0.0579    0.0000 N   0  0  0  0  0  0  0  0  0  0  0  0
    1.6521   -0.7735    0.0000 C   0  0  0  0  0  0  0  0  0  0  0  0
    3.3044    0.6578    0.0000 N   0  0  0  0  0  0  0  0  0  0  0  0
    4.1358    0.6578    0.0000 C   0  0  0  0  0  0  0  0  0  0  0  0
    4.5462    1.3734    0.0000 C   0  0  0  0  0  0  0  0  0  0  0  0
    4.1358    2.0889    0.0000 O   0  0  0  0  0  0  0  0  0  0  0  0
    3.3044    2.0889    0.0000 C   0  0  0  0  0  0  0  0  0  0  0  0
    2.8940    1.3734    0.0000 C   0  0  0  0  0  0  0  0  0  0  0  0
    2.5888    2.4993    0.0000 C   0  0  0  0  0  0  0  0  0  0  0  0
    5.2619    1.7838    0.0000 C   0  0  0  0  0  0  0  0  0  0  0  0
    0.0000    0.0000    0.0000 H   0  0  0  0  0  0  0  0  0  0  0  0
    0.0000    0.0000    0.0000 H   0  0  0  0  0  0  0  0  0  0  0  0
    0.0000    0.0000    0.0000 H   0  0  0  0  0  0  0  0  0  0  0  0
    0.0000    0.0000    0.0000 H   0  0  0  0  0  0  0  0  0  0  0  0
    0.0000    0.0000    0.0000 H   0  0  0  0  0  0  0  0  0  0  0  0
    0.0000    0.0000    0.0000 H   0  0  0  0  0  0  0  0  0  0  0  0
    0.0000    0.0000    0.0000 H   0  0  0  0  0  0  0  0  0  0  0  0
    0.0000    0.0000    0.0000 H   0  0  0  0  0  0  0  0  0  0  0  0
    0.0000    0.0000    0.0000 H   0  0  0  0  0  0  0  0  0  0  0  0
    0.0000    0.0000    0.0000 H   0  0  0  0  0  0  0  0  0  0  0  0
    0.0000    0.0000    0.0000 H   0  0  0  0  0  0  0  0  0  0  0  0
    0.0000    0.0000    0.0000 H   0  0  0  0  0  0  0  0  0  0  0  0
    0.0000    0.0000    0.0000 H   0  0  0  0  0  0  0  0  0  0  0  0
    0.0000    0.0000    0.0000 H   0  0  0  0  0  0  0  0  0  0  0  0
    0.0000    0.0000    0.0000 H   0  0  0  0  0  0  0  0  0  0  0  0
    0.0000    0.0000    0.0000 H   0  0  0  0  0  0  0  0  0  0  0  0
    0.0000    0.0000    0.0000 H   0  0  0  0  0  0  0  0  0  0  0  0
    0.0000    0.0000    0.0000 H   0  0  0  0  0  0  0  0  0  0  0  0
    0.0000    0.0000    0.0000 H   0  0  0  0  0  0  0  0  0  0  0  0
    0.0000    0.0000    0.0000 H   0  0  0  0  0  0  0  0  0  0  0  0
    0.0000    0.0000    0.0000 H   0  0  0  0  0  0  0  0  0  0  0  0
    0.0000    0.0000    0.0000 H   0  0  0  0  0  0  0  0  0  0  0  0
    0.0000    0.0000    0.0000 H   0  0  0  0  0  0  0  0  0  0  0  0
    0.0000    0.0000    0.0000 H   0  0  0  0  0  0  0  0  0  0  0  0
    0.0000    0.0000    0.0000 H   0  0  0  0  0  0  0  0  0  0  0  0
    0.0000    0.0000    0.0000 H   0  0  0  0  0  0  0  0  0  0  0  0
  1  2  2  0
  2  3  1  0
  2 21  1  0
  3  4  2  0
  3 19  1  0
  4  5  1  0
  5  6  2  0
  6  7  1  0
  7  8  1  0
  7 19  2  0
  8  9  2  0
  8 13  1  0
  9 10  1  0
 10 11  2  0
 11 12  1  0
 11 14  1  0
 12 13  2  0
 14 15  1  0
 15 16  1  0
 15 17  1  0
 15 18  1  0
 19 20  1  0
 21 22  1  0
 22 23  2  0
 22 27  1  0
 23 24  1  0
 24 25  2  0
 25 26  1  0
 25 28  1  0
 26 27  2  0
 28 29  1  0
 28 33  1  0
 29 30  1  0
 30 31  1  0
 30 35  1  6
 31 32  1  0
 32 33  1  0
 32 34  1  1
  4 36  1  0
  5 37  1  0
  6 38  1  0
  9 39  1  0
 10 40  1  0
 12 41  1  0
 13 42  1  0
 20 43  1  0
 20 44  1  0
 20 45  1  0
 21 46  1  0
 23 47  1  0
 24 48  1  0
 27 49  1  0
 29 50  1  0
 29 51  1  0
 30 52  1  0
 32 53  1  0
 33 54  1  0
 33 55  1  0
 34 56  1  0
 34 57  1  0
 34 58  1  0
 35 59  1  0
 35 60  1  0
 35 61  1  0
M  END
>  <ALOGPS_LOGP>  (1) 
5.64

>  <ALOGPS_LOGS>  (1) 
-5.50

>  <ALOGPS_SOLUBILITY>  (1) 
1.55e-03 g/l

>  <DATABASE_ID>  (1) 
DB09143

>  <DATABASE_NAME>  (1) 
drugbank

>  <DRUGBANK_ID>  (1) 
DB09143

>  <DRUG_GROUPS>  (1) 
approved; investigational

>  <EXACT_MASS>  (1) 
485.192626198

>  <FORMULA>  (1) 
C26H26F3N3O3

>  <GENERIC_NAME>  (1) 
Sonidegib

>  <INCHI_IDENTIFIER>  (1) 
InChI=1S/C26H26F3N3O3/c1-16-14-32(15-17(2)34-16)24-12-9-20(13-30-24)31-25(33)23-6-4-5-22(18(23)3)19-7-10-21(11-8-19)35-26(27,28)29/h4-13,16-17H,14-15H2,1-3H3,(H,31,33)/t16-,17+

>  <INCHI_KEY>  (1) 
VZZJRYRQSPEMTK-CALCHBBNSA-N

>  <JCHEM_ACCEPTOR_COUNT>  (1) 
5

>  <JCHEM_ATOM_COUNT>  (1) 
61

>  <JCHEM_AVERAGE_POLARIZABILITY>  (1) 
49.90980661840627

>  <JCHEM_BIOAVAILABILITY>  (1) 
1

>  <JCHEM_DONOR_COUNT>  (1) 
1

>  <JCHEM_FORMAL_CHARGE>  (1) 
0

>  <JCHEM_GHOSE_FILTER>  (1) 
0

>  <JCHEM_IUPAC>  (1) 
N-{6-[(2R,6S)-2,6-dimethylmorpholin-4-yl]pyridin-3-yl}-2-methyl-4'-(trifluoromethoxy)-[1,1'-biphenyl]-3-carboxamide

>  <JCHEM_LOGP>  (1) 
6.756367518666668

>  <JCHEM_MDDR_LIKE_RULE>  (1) 
1

>  <JCHEM_NUMBER_OF_RINGS>  (1) 
4

>  <JCHEM_PHYSIOLOGICAL_CHARGE>  (1) 
0

>  <JCHEM_PKA_STRONGEST_ACIDIC>  (1) 
14.212893179004677

>  <JCHEM_PKA_STRONGEST_BASIC>  (1) 
5.4513234436618285

>  <JCHEM_POLAR_SURFACE_AREA>  (1) 
63.69

>  <JCHEM_REFRACTIVITY>  (1) 
125.3365

>  <JCHEM_ROTATABLE_BOND_COUNT>  (1) 
6

>  <JCHEM_RULE_OF_FIVE>  (1) 
0

>  <JCHEM_TRADITIONAL_IUPAC>  (1) 
N-{6-[(2R,6S)-2,6-dimethylmorpholin-4-yl]pyridin-3-yl}-2-methyl-4'-(trifluoromethoxy)-[1,1'-biphenyl]-3-carboxamide

>  <JCHEM_VEBER_RULE>  (1) 
0

>  <MOLECULAR_WEIGHT>  (1) 
485.507

>  <PRODUCTS>  (1) 
Odomzo

>  <SALTS>  (1) 
Sonidegib phosphate

>  <SMILES>  (1) 
[H][C@]1(C)CN(C[C@@]([H])(C)O1)C1=CC=C(NC(=O)C2=CC=CC(=C2C)C2=CC=C(OC(F)(F)F)C=C2)C=N1

>  <SYNONYMS>  (1) 
Erismodegib; N-[6-(cis-2,6-dimethylmorpholin-4-yl)pyridin-3-yl]-2-methyl-4'-(trifluoromethoxy)[1,1'-biphenyl]-3-carboxamide

$$$$
