
     RDKit          2D

 48 50  0  0  0  0  0  0  0  0999 V2000
   -2.8528   -2.0581    0.0000 C   0  0  0  0  0  0  0  0  0  0  0  0
   -2.8528   -2.8831    0.0000 C   0  0  0  0  0  0  0  0  0  0  0  0
   -2.1384   -3.2956    0.0000 C   0  0  0  0  0  0  0  0  0  0  0  0
   -1.4238   -2.8831    0.0000 N   0  0  0  0  0  0  0  0  0  0  0  0
   -1.4238   -2.0581    0.0000 C   0  0  0  0  0  0  0  0  0  0  0  0
   -2.1384   -1.6456    0.0000 C   0  0  0  0  0  0  0  0  0  0  0  0
   -0.6984   -1.6391    0.0000 N   0  0  0  0  0  0  0  0  0  0  0  0
    0.0117   -2.0490    0.0000 C   0  0  0  0  0  0  0  0  0  0  0  0
    0.0120   -2.8828    0.0000 C   0  0  0  0  0  0  0  0  0  0  0  0
    0.7265   -3.2951    0.0000 C   0  0  0  0  0  0  0  0  0  0  0  0
    1.4409   -2.8824    0.0000 C   0  0  0  0  0  0  0  0  0  0  0  0
    1.4406   -2.0486    0.0000 C   0  0  0  0  0  0  0  0  0  0  0  0
    0.7261   -1.6363    0.0000 C   0  0  0  0  0  0  0  0  0  0  0  0
    2.1483   -1.6398    0.0000 C   0  0  0  0  0  0  0  0  0  0  0  0
    2.5608   -2.3543    0.0000 F   0  0  0  0  0  0  0  0  0  0  0  0
    1.7358   -0.9254    0.0000 F   0  0  0  0  0  0  0  0  0  0  0  0
    2.8627   -1.2273    0.0000 F   0  0  0  0  0  0  0  0  0  0  0  0
   -2.1384   -0.8207    0.0000 C   0  0  0  0  0  0  0  0  0  0  0  0
   -2.8627   -0.4023    0.0000 O   0  0  0  0  0  0  0  0  0  0  0  0
   -1.4338   -0.4138    0.0000 O   0  0  0  0  0  0  0  0  0  0  0  0
   -1.4338    0.4111    0.0000 C   0  0  0  0  0  0  0  0  0  0  0  0
   -0.7294    0.8180    0.0000 C   0  0  0  0  0  0  0  0  0  0  0  0
   -0.7293    1.6541    0.0000 N   0  0  0  0  0  0  0  0  0  0  0  0
   -0.0297    2.0582    0.0000 C   0  0  0  0  0  0  0  0  0  0  0  0
   -0.0298    2.8832    0.0000 C   0  0  0  0  0  0  0  0  0  0  0  0
   -0.7443    3.2956    0.0000 O   0  0  0  0  0  0  0  0  0  0  0  0
   -1.4439    2.8915    0.0000 C   0  0  0  0  0  0  0  0  0  0  0  0
   -1.4438    2.0665    0.0000 C   0  0  0  0  0  0  0  0  0  0  0  0
    0.0000    0.0000    0.0000 H   0  0  0  0  0  0  0  0  0  0  0  0
    0.0000    0.0000    0.0000 H   0  0  0  0  0  0  0  0  0  0  0  0
    0.0000    0.0000    0.0000 H   0  0  0  0  0  0  0  0  0  0  0  0
    0.0000    0.0000    0.0000 H   0  0  0  0  0  0  0  0  0  0  0  0
    0.0000    0.0000    0.0000 H   0  0  0  0  0  0  0  0  0  0  0  0
    0.0000    0.0000    0.0000 H   0  0  0  0  0  0  0  0  0  0  0  0
    0.0000    0.0000    0.0000 H   0  0  0  0  0  0  0  0  0  0  0  0
    0.0000    0.0000    0.0000 H   0  0  0  0  0  0  0  0  0  0  0  0
    0.0000    0.0000    0.0000 H   0  0  0  0  0  0  0  0  0  0  0  0
    0.0000    0.0000    0.0000 H   0  0  0  0  0  0  0  0  0  0  0  0
    0.0000    0.0000    0.0000 H   0  0  0  0  0  0  0  0  0  0  0  0
    0.0000    0.0000    0.0000 H   0  0  0  0  0  0  0  0  0  0  0  0
    0.0000    0.0000    0.0000 H   0  0  0  0  0  0  0  0  0  0  0  0
    0.0000    0.0000    0.0000 H   0  0  0  0  0  0  0  0  0  0  0  0
    0.0000    0.0000    0.0000 H   0  0  0  0  0  0  0  0  0  0  0  0
    0.0000    0.0000    0.0000 H   0  0  0  0  0  0  0  0  0  0  0  0
    0.0000    0.0000    0.0000 H   0  0  0  0  0  0  0  0  0  0  0  0
    0.0000    0.0000    0.0000 H   0  0  0  0  0  0  0  0  0  0  0  0
    0.0000    0.0000    0.0000 H   0  0  0  0  0  0  0  0  0  0  0  0
    0.0000    0.0000    0.0000 H   0  0  0  0  0  0  0  0  0  0  0  0
  1  2  2  0
  2  3  1  0
  3  4  2  0
  4  5  1  0
  5  6  2  0
  1  6  1  0
  5  7  1  0
  7  8  1  0
  8  9  2  0
  9 10  1  0
 10 11  2  0
 11 12  1  0
 12 13  2  0
  8 13  1  0
 12 14  1  0
 14 15  1  0
 14 16  1  0
 14 17  1  0
  6 18  1  0
 18 19  2  0
 18 20  1  0
 20 21  1  0
 21 22  1  0
 22 23  1  0
 23 24  1  0
 24 25  1  0
 25 26  1  0
 26 27  1  0
 27 28  1  0
 23 28  1  0
  1 29  1  0
  2 30  1  0
  3 31  1  0
  7 32  1  0
  9 33  1  0
 10 34  1  0
 11 35  1  0
 13 36  1  0
 21 37  1  0
 21 38  1  0
 22 39  1  0
 22 40  1  0
 24 41  1  0
 24 42  1  0
 25 43  1  0
 25 44  1  0
 27 45  1  0
 27 46  1  0
 28 47  1  0
 28 48  1  0
M  END
>  <ALOGPS_LOGP>  (1) 
3.34

>  <ALOGPS_LOGS>  (1) 
-3.66

>  <ALOGPS_SOLUBILITY>  (1) 
8.61e-02 g/l

>  <DATABASE_ID>  (1) 
DB09285

>  <DATABASE_NAME>  (1) 
drugbank

>  <DRUGBANK_ID>  (1) 
DB09285

>  <DRUG_GROUPS>  (1) 
approved

>  <EXACT_MASS>  (1) 
395.145676005

>  <FORMULA>  (1) 
C19H20F3N3O3

>  <GENERIC_NAME>  (1) 
Morniflumate

>  <INCHI_IDENTIFIER>  (1) 
InChI=1S/C19H20F3N3O3/c20-19(21,22)14-3-1-4-15(13-14)24-17-16(5-2-6-23-17)18(26)28-12-9-25-7-10-27-11-8-25/h1-6,13H,7-12H2,(H,23,24)

>  <INCHI_KEY>  (1) 
LDXSPUSKBDTEKA-UHFFFAOYSA-N

>  <JCHEM_ACCEPTOR_COUNT>  (1) 
5

>  <JCHEM_ATOM_COUNT>  (1) 
48

>  <JCHEM_AVERAGE_POLARIZABILITY>  (1) 
38.37298024790089

>  <JCHEM_BIOAVAILABILITY>  (1) 
1

>  <JCHEM_DONOR_COUNT>  (1) 
1

>  <JCHEM_FORMAL_CHARGE>  (1) 
0

>  <JCHEM_GHOSE_FILTER>  (1) 
1

>  <JCHEM_IUPAC>  (1) 
2-(morpholin-4-yl)ethyl 2-{[3-(trifluoromethyl)phenyl]amino}pyridine-3-carboxylate

>  <JCHEM_LOGP>  (1) 
4.771426210666666

>  <JCHEM_MDDR_LIKE_RULE>  (1) 
1

>  <JCHEM_NUMBER_OF_RINGS>  (1) 
3

>  <JCHEM_PHYSIOLOGICAL_CHARGE>  (1) 
0

>  <JCHEM_PKA_STRONGEST_ACIDIC>  (1) 
14.21466849592668

>  <JCHEM_PKA_STRONGEST_BASIC>  (1) 
5.855734359311145

>  <JCHEM_POLAR_SURFACE_AREA>  (1) 
63.69

>  <JCHEM_REFRACTIVITY>  (1) 
97.79339999999998

>  <JCHEM_ROTATABLE_BOND_COUNT>  (1) 
8

>  <JCHEM_RULE_OF_FIVE>  (1) 
1

>  <JCHEM_TRADITIONAL_IUPAC>  (1) 
morniflumate

>  <JCHEM_VEBER_RULE>  (1) 
0

>  <MOLECULAR_WEIGHT>  (1) 
395.382

>  <SMILES>  (1) 
FC(F)(F)C1=CC(NC2=C(C=CC=N2)C(=O)OCCN2CCOCC2)=CC=C1

$$$$
