
     RDKit          2D

 69 70  0  0  0  0  0  0  0  0999 V2000
    0.1314    1.9127    0.0000 C   0  0  0  0  0  0  0  0  0  0  0  0
    0.1314    1.0877    0.0000 C   0  0  0  0  0  0  0  0  0  0  0  0
    0.8459    0.6752    0.0000 C   0  0  0  0  0  0  0  0  0  0  0  0
    1.5604    1.0877    0.0000 C   0  0  0  0  0  0  0  0  0  0  0  0
    1.5604    1.9127    0.0000 C   0  0  0  0  0  0  0  0  0  0  0  0
    0.8459    2.3252    0.0000 C   0  0  0  0  0  0  0  0  0  0  0  0
    0.8459    3.1501    0.0000 N   0  0  0  0  0  0  0  0  0  0  0  0
    0.8459   -0.1496    0.0000 C   0  0  0  0  0  0  0  0  0  0  0  0
    0.1216   -0.5680    0.0000 C   0  0  0  0  0  0  0  0  0  0  0  0
    1.8783   -0.6752    0.0000 C   0  0  0  0  0  0  0  0  0  0  0  0
   -0.5879   -0.1583    0.0000 C   0  0  0  0  0  0  0  0  0  0  0  0
   -1.3024   -0.5708    0.0000 C   0  0  0  0  0  0  0  0  0  0  0  0
   -1.3023   -1.3958    0.0000 C   0  0  0  0  0  0  0  0  0  0  0  0
   -0.5928   -1.8055    0.0000 C   0  0  0  0  0  0  0  0  0  0  0  0
    0.1216   -1.3930    0.0000 C   0  0  0  0  0  0  0  0  0  0  0  0
    1.8783   -1.5057    0.0000 C   0  0  0  0  0  0  0  0  0  0  0  0
    2.5928   -1.9182    0.0000 C   0  0  0  0  0  0  0  0  0  0  0  0
    3.3073   -1.5056    0.0000 C   0  0  0  0  0  0  0  0  0  0  0  0
    3.3073   -0.6750    0.0000 C   0  0  0  0  0  0  0  0  0  0  0  0
    2.5927   -0.2626    0.0000 C   0  0  0  0  0  0  0  0  0  0  0  0
    0.1216    3.5684    0.0000 C   0  0  0  0  0  0  0  0  0  0  0  0
    1.5504    3.5569    0.0000 C   0  0  0  0  0  0  0  0  0  0  0  0
   -2.0204   -1.8105    0.0000 N   0  0  0  0  0  0  0  0  0  0  0  0
   -2.7343   -1.3984    0.0000 C   0  0  0  0  0  0  0  0  0  0  0  0
   -2.0202   -2.6247    0.0000 C   0  0  0  0  0  0  0  0  0  0  0  0
   -2.7295   -3.0345    0.0000 C   0  0  0  0  0  0  0  0  0  0  0  0
   -3.4293   -1.7997    0.0000 C   0  0  0  0  0  0  0  0  0  0  0  0
    2.5928    0.5564    0.0000 S   0  0  0  0  0  0  0  0  0  0  0  0
    2.5929   -2.7434    0.0000 S   0  0  0  0  0  0  0  0  0  0  0  0
    2.5928    1.3814    0.0000 O   0  0  0  0  0  0  0  0  0  0  0  0
    3.4293    0.5564    0.0000 O   0  0  0  0  0  0  0  0  0  0  0  0
    1.7793    0.5564    0.0000 O   0  0  0  0  0  0  0  0  0  0  0  0
    2.5929   -3.5684    0.0000 O   0  0  0  0  0  0  0  0  0  0  0  0
    3.4293   -2.7433    0.0000 O   0  0  0  0  0  0  0  0  0  0  0  0
    1.7793   -2.7434    0.0000 O   0  0  0  0  0  0  0  0  0  0  0  0
   -0.5854    3.1604    0.0000 C   0  0  0  0  0  0  0  0  0  0  0  0
    2.2990    3.1250    0.0000 C   0  0  0  0  0  0  0  0  0  0  0  0
    1.1317   -3.5553    0.0000 Na  0  0  0  0  0  0  0  0  0  0  0  0
    0.0000    0.0000    0.0000 H   0  0  0  0  0  0  0  0  0  0  0  0
    0.0000    0.0000    0.0000 H   0  0  0  0  0  0  0  0  0  0  0  0
    0.0000    0.0000    0.0000 H   0  0  0  0  0  0  0  0  0  0  0  0
    0.0000    0.0000    0.0000 H   0  0  0  0  0  0  0  0  0  0  0  0
    0.0000    0.0000    0.0000 H   0  0  0  0  0  0  0  0  0  0  0  0
    0.0000    0.0000    0.0000 H   0  0  0  0  0  0  0  0  0  0  0  0
    0.0000    0.0000    0.0000 H   0  0  0  0  0  0  0  0  0  0  0  0
    0.0000    0.0000    0.0000 H   0  0  0  0  0  0  0  0  0  0  0  0
    0.0000    0.0000    0.0000 H   0  0  0  0  0  0  0  0  0  0  0  0
    0.0000    0.0000    0.0000 H   0  0  0  0  0  0  0  0  0  0  0  0
    0.0000    0.0000    0.0000 H   0  0  0  0  0  0  0  0  0  0  0  0
    0.0000    0.0000    0.0000 H   0  0  0  0  0  0  0  0  0  0  0  0
    0.0000    0.0000    0.0000 H   0  0  0  0  0  0  0  0  0  0  0  0
    0.0000    0.0000    0.0000 H   0  0  0  0  0  0  0  0  0  0  0  0
    0.0000    0.0000    0.0000 H   0  0  0  0  0  0  0  0  0  0  0  0
    0.0000    0.0000    0.0000 H   0  0  0  0  0  0  0  0  0  0  0  0
    0.0000    0.0000    0.0000 H   0  0  0  0  0  0  0  0  0  0  0  0
    0.0000    0.0000    0.0000 H   0  0  0  0  0  0  0  0  0  0  0  0
    0.0000    0.0000    0.0000 H   0  0  0  0  0  0  0  0  0  0  0  0
    0.0000    0.0000    0.0000 H   0  0  0  0  0  0  0  0  0  0  0  0
    0.0000    0.0000    0.0000 H   0  0  0  0  0  0  0  0  0  0  0  0
    0.0000    0.0000    0.0000 H   0  0  0  0  0  0  0  0  0  0  0  0
    0.0000    0.0000    0.0000 H   0  0  0  0  0  0  0  0  0  0  0  0
    0.0000    0.0000    0.0000 H   0  0  0  0  0  0  0  0  0  0  0  0
    0.0000    0.0000    0.0000 H   0  0  0  0  0  0  0  0  0  0  0  0
    0.0000    0.0000    0.0000 H   0  0  0  0  0  0  0  0  0  0  0  0
    0.0000    0.0000    0.0000 H   0  0  0  0  0  0  0  0  0  0  0  0
    0.0000    0.0000    0.0000 H   0  0  0  0  0  0  0  0  0  0  0  0
    0.0000    0.0000    0.0000 H   0  0  0  0  0  0  0  0  0  0  0  0
    0.0000    0.0000    0.0000 H   0  0  0  0  0  0  0  0  0  0  0  0
    0.0000    0.0000    0.0000 H   0  0  0  0  0  0  0  0  0  0  0  0
  1  2  2  0
  2  3  1  0
  3  4  1  0
  4  5  2  0
  5  6  1  0
  1  6  1  0
  6  7  2  3
  3  8  2  3
  8  9  1  0
  8 10  1  0
  9 11  2  0
 11 12  1  0
 12 13  2  0
 13 14  1  0
 14 15  2  0
  9 15  1  0
 10 16  2  0
 16 17  1  0
 17 18  2  0
 18 19  1  0
 19 20  2  0
 10 20  1  0
  7 21  1  0
  7 22  1  0
 13 23  1  0
 23 24  1  0
 23 25  1  0
 25 26  1  0
 24 27  1  0
 20 28  1  0
 17 29  1  0
 28 30  1  0
 28 31  2  0
 28 32  2  0
 29 33  1  0
 29 34  2  0
 29 35  2  0
 21 36  1  0
 22 37  1  0
  1 39  1  0
  2 40  1  0
  4 41  1  0
  5 42  1  0
 11 43  1  0
 12 44  1  0
 14 45  1  0
 15 46  1  0
 16 47  1  0
 18 48  1  0
 19 49  1  0
 21 50  1  0
 21 51  1  0
 22 52  1  0
 22 53  1  0
 24 54  1  0
 24 55  1  0
 25 56  1  0
 25 57  1  0
 26 58  1  0
 26 59  1  0
 26 60  1  0
 27 61  1  0
 27 62  1  0
 27 63  1  0
 36 64  1  0
 36 65  1  0
 36 66  1  0
 37 67  1  0
 37 68  1  0
 37 69  1  0
M  CHG  4   7   1  30  -1  33  -1  38   1
M  END
>  <ALOGPS_LOGP>  (1) 
1.14

>  <ALOGPS_LOGS>  (1) 
-6.28

>  <ALOGPS_SOLUBILITY>  (1) 
3.24e-04 g/l

>  <DATABASE_ID>  (1) 
DB09136

>  <DATABASE_NAME>  (1) 
drugbank

>  <DRUGBANK_ID>  (1) 
DB09136

>  <DRUG_GROUPS>  (1) 
approved

>  <EXACT_MASS>  (1) 
566.15212335

>  <FORMULA>  (1) 
C27H31N2NaO6S2

>  <GENERIC_NAME>  (1) 
Isosulfan blue

>  <INCHI_IDENTIFIER>  (1) 
InChI=1S/C27H32N2O6S2.Na/c1-5-28(6-2)22-13-9-20(10-14-22)27(21-11-15-23(16-12-21)29(7-3)8-4)25-19-24(36(30,31)32)17-18-26(25)37(33,34)35;/h9-19H,5-8H2,1-4H3,(H-,30,31,32,33,34,35);/q;+1/p-1

>  <INCHI_KEY>  (1) 
NLUFDZBOHMOBOE-UHFFFAOYSA-M

>  <JCHEM_ACCEPTOR_COUNT>  (1) 
7

>  <JCHEM_ATOM_COUNT>  (1) 
69

>  <JCHEM_AVERAGE_POLARIZABILITY>  (1) 
57.840908034289

>  <JCHEM_BIOAVAILABILITY>  (1) 
1

>  <JCHEM_DONOR_COUNT>  (1) 
0

>  <JCHEM_FORMAL_CHARGE>  (1) 
0

>  <JCHEM_GHOSE_FILTER>  (1) 
0

>  <JCHEM_IUPAC>  (1) 
sodium 2-{[4-(diethylamino)phenyl][4-(diethyliminiumyl)cyclohexa-2,5-dien-1-ylidene]methyl}benzene-1,4-disulfonate

>  <JCHEM_LOGP>  (1) 
2.048418755586162

>  <JCHEM_MDDR_LIKE_RULE>  (1) 
1

>  <JCHEM_NUMBER_OF_RINGS>  (1) 
3

>  <JCHEM_PHYSIOLOGICAL_CHARGE>  (1) 
-1

>  <JCHEM_PKA>  (1) 
-1.7616294711441007

>  <JCHEM_PKA_STRONGEST_ACIDIC>  (1) 
-2.510192112783691

>  <JCHEM_PKA_STRONGEST_BASIC>  (1) 
5.333486400400317

>  <JCHEM_POLAR_SURFACE_AREA>  (1) 
120.64999999999998

>  <JCHEM_REFRACTIVITY>  (1) 
169.57130000000004

>  <JCHEM_ROTATABLE_BOND_COUNT>  (1) 
9

>  <JCHEM_RULE_OF_FIVE>  (1) 
0

>  <JCHEM_TRADITIONAL_IUPAC>  (1) 
sodium 2-{[4-(diethylamino)phenyl][4-(diethyliminio)cyclohexa-2,5-dien-1-ylidene]methyl}benzene-1,4-disulfonate

>  <JCHEM_VEBER_RULE>  (1) 
0

>  <MOLECULAR_WEIGHT>  (1) 
566.66

>  <PRODUCTS>  (1) 
Isosulfan Blue; Lymphazurin; Lymphazurin 1%

>  <SMILES>  (1) 
[Na+].CCN(CC)C1=CC=C(C=C1)C(=C1C=CC(C=C1)=[N+](CC)CC)C1=CC(=CC=C1S([O-])(=O)=O)S([O-])(=O)=O

$$$$
