
     RDKit          2D

 79 80  0  0  1  0  0  0  0  0999 V2000
   -1.4333    2.5755    0.0000 C   0  0  0  0  0  0  0  0  0  0  0  0
   -1.8458    1.8610    0.0000 C   0  0  0  0  0  0  0  0  0  0  0  0
   -1.4333    1.1465    0.0000 C   0  0  0  0  0  0  0  0  0  0  0  0
   -1.8458    0.4321    0.0000 O   0  0  0  0  0  0  0  0  0  0  0  0
   -0.6083    1.1465    0.0000 O   0  0  0  0  0  0  0  0  0  0  0  0
   -0.1958    0.4321    0.0000 C   0  0  0  0  0  0  0  0  0  0  0  0
   -0.9103    0.0196    0.0000 C   0  0  0  0  0  0  0  0  0  0  0  0
   -0.9103   -0.8054    0.0000 C   0  0  0  0  0  0  0  0  0  0  0  0
   -0.1958   -1.2179    0.0000 C   0  0  0  0  0  0  0  0  0  0  0  0
   -0.1958   -2.0429    0.0000 C   0  0  0  0  0  0  0  0  0  0  0  0
   -0.9103   -2.4554    0.0000 C   0  0  0  0  0  0  0  0  0  0  0  0
   -1.6248   -2.0429    0.0000 C   0  0  0  0  0  0  0  0  0  0  0  0
   -1.6248   -1.2179    0.0000 C   0  0  0  0  0  0  0  0  0  0  0  0
    0.5186    0.8446    0.0000 C   0  0  0  0  0  0  0  0  0  0  0  0
    0.5186    1.6696    0.0000 C   0  0  0  0  0  0  0  0  0  0  0  0
    1.2331    2.0821    0.0000 C   0  0  0  0  0  0  0  0  0  0  0  0
    1.9476    1.6696    0.0000 C   0  0  0  0  0  0  0  0  0  0  0  0
    1.9476    0.8446    0.0000 C   0  0  0  0  0  0  0  0  0  0  0  0
    1.2331    0.4321    0.0000 C   0  0  0  0  0  0  0  0  0  0  0  0
    0.2167   -0.2824    0.0000 C   0  0  0  0  0  0  0  0  0  0  0  0
    0.3029   -1.1029    0.0000 C   0  0  0  0  0  0  0  0  0  0  0  0
    1.0417   -0.2824    0.0000 C   0  0  0  0  0  0  0  0  0  0  0  0
    1.4542   -0.9969    0.0000 N   0  0  0  0  0  0  0  0  0  0  0  0
    1.0417   -1.7114    0.0000 C   0  0  0  0  0  0  0  0  0  0  0  0
    2.2792   -0.9969    0.0000 C   0  0  0  0  0  0  0  0  0  0  0  0
    4.1649   -0.6777    0.0000 C   0  0  0  0  0  0  0  0  0  0  0  0
    4.1649    0.1473    0.0000 C   0  0  0  0  0  0  0  0  0  0  0  0
    4.8793    0.5598    0.0000 C   0  0  0  0  0  0  0  0  0  0  0  0
    5.5938    0.1473    0.0000 C   0  0  0  0  0  0  0  0  0  0  0  0
    6.3083    0.5598    0.0000 C   0  0  0  0  0  0  0  0  0  0  0  0
    7.0228    0.1473    0.0000 C   0  0  0  0  0  0  0  0  0  0  0  0
    7.0228   -0.6777    0.0000 C   0  0  0  0  0  0  0  0  0  0  0  0
    6.3083   -1.0902    0.0000 C   0  0  0  0  0  0  0  0  0  0  0  0
    5.5938   -0.6777    0.0000 C   0  0  0  0  0  0  0  0  0  0  0  0
    4.8793   -1.0902    0.0000 C   0  0  0  0  0  0  0  0  0  0  0  0
    7.7372    0.5598    0.0000 S   0  0  0  0  0  0  0  0  0  0  0  0
    8.4517    0.9723    0.0000 O   0  0  0  0  0  0  0  0  0  0  0  0
    8.1497   -0.1546    0.0000 O   0  0  0  0  0  0  0  0  0  0  0  0
    7.3247    1.2743    0.0000 O   0  0  0  0  0  0  0  0  0  0  0  0
    0.0000   -4.1054    0.0000 O   0  0  0  0  0  0  0  0  0  0  0  0
    0.0000    0.0000    0.0000 H   0  0  0  0  0  0  0  0  0  0  0  0
    0.0000    0.0000    0.0000 H   0  0  0  0  0  0  0  0  0  0  0  0
    0.0000    0.0000    0.0000 H   0  0  0  0  0  0  0  0  0  0  0  0
    0.0000    0.0000    0.0000 H   0  0  0  0  0  0  0  0  0  0  0  0
    0.0000    0.0000    0.0000 H   0  0  0  0  0  0  0  0  0  0  0  0
    0.0000    0.0000    0.0000 H   0  0  0  0  0  0  0  0  0  0  0  0
    0.0000    0.0000    0.0000 H   0  0  0  0  0  0  0  0  0  0  0  0
    0.0000    0.0000    0.0000 H   0  0  0  0  0  0  0  0  0  0  0  0
    0.0000    0.0000    0.0000 H   0  0  0  0  0  0  0  0  0  0  0  0
    0.0000    0.0000    0.0000 H   0  0  0  0  0  0  0  0  0  0  0  0
    0.0000    0.0000    0.0000 H   0  0  0  0  0  0  0  0  0  0  0  0
    0.0000    0.0000    0.0000 H   0  0  0  0  0  0  0  0  0  0  0  0
    0.0000    0.0000    0.0000 H   0  0  0  0  0  0  0  0  0  0  0  0
    0.0000    0.0000    0.0000 H   0  0  0  0  0  0  0  0  0  0  0  0
    0.0000    0.0000    0.0000 H   0  0  0  0  0  0  0  0  0  0  0  0
    0.0000    0.0000    0.0000 H   0  0  0  0  0  0  0  0  0  0  0  0
    0.0000    0.0000    0.0000 H   0  0  0  0  0  0  0  0  0  0  0  0
    0.0000    0.0000    0.0000 H   0  0  0  0  0  0  0  0  0  0  0  0
    0.0000    0.0000    0.0000 H   0  0  0  0  0  0  0  0  0  0  0  0
    0.0000    0.0000    0.0000 H   0  0  0  0  0  0  0  0  0  0  0  0
    0.0000    0.0000    0.0000 H   0  0  0  0  0  0  0  0  0  0  0  0
    0.0000    0.0000    0.0000 H   0  0  0  0  0  0  0  0  0  0  0  0
    0.0000    0.0000    0.0000 H   0  0  0  0  0  0  0  0  0  0  0  0
    0.0000    0.0000    0.0000 H   0  0  0  0  0  0  0  0  0  0  0  0
    0.0000    0.0000    0.0000 H   0  0  0  0  0  0  0  0  0  0  0  0
    0.0000    0.0000    0.0000 H   0  0  0  0  0  0  0  0  0  0  0  0
    0.0000    0.0000    0.0000 H   0  0  0  0  0  0  0  0  0  0  0  0
    0.0000    0.0000    0.0000 H   0  0  0  0  0  0  0  0  0  0  0  0
    0.0000    0.0000    0.0000 H   0  0  0  0  0  0  0  0  0  0  0  0
    0.0000    0.0000    0.0000 H   0  0  0  0  0  0  0  0  0  0  0  0
    0.0000    0.0000    0.0000 H   0  0  0  0  0  0  0  0  0  0  0  0
    0.0000    0.0000    0.0000 H   0  0  0  0  0  0  0  0  0  0  0  0
    0.0000    0.0000    0.0000 H   0  0  0  0  0  0  0  0  0  0  0  0
    0.0000    0.0000    0.0000 H   0  0  0  0  0  0  0  0  0  0  0  0
    0.0000    0.0000    0.0000 H   0  0  0  0  0  0  0  0  0  0  0  0
    0.0000    0.0000    0.0000 H   0  0  0  0  0  0  0  0  0  0  0  0
    0.0000    0.0000    0.0000 H   0  0  0  0  0  0  0  0  0  0  0  0
    0.0000    0.0000    0.0000 H   0  0  0  0  0  0  0  0  0  0  0  0
    0.0000    0.0000    0.0000 H   0  0  0  0  0  0  0  0  0  0  0  0
  1  2  1  0
  2  3  1  0
  3  4  2  0
  3  5  1  0
  6  5  1  6
  6  7  1  0
  7  8  1  0
  8  9  2  0
  9 10  1  0
 10 11  2  0
 11 12  1  0
 12 13  2  0
  8 13  1  0
  6 14  1  0
 14 15  2  0
 15 16  1  0
 16 17  2  0
 17 18  1  0
 18 19  2  0
 14 19  1  0
  6 20  1  0
 20 21  1  1
 20 22  1  0
 22 23  1  0
 23 24  1  0
 23 25  1  0
 26 27  2  0
 27 28  1  0
 28 29  2  0
 29 30  1  0
 30 31  2  0
 31 32  1  0
 32 33  2  0
 33 34  1  0
 29 34  1  0
 34 35  2  0
 26 35  1  0
 31 36  1  0
 36 37  2  0
 36 38  2  0
 36 39  1  0
  1 41  1  0
  1 42  1  0
  1 43  1  0
  2 44  1  0
  2 45  1  0
  7 46  1  0
  7 47  1  0
  9 48  1  0
 10 49  1  0
 11 50  1  0
 12 51  1  0
 13 52  1  0
 15 53  1  0
 16 54  1  0
 17 55  1  0
 18 56  1  0
 19 57  1  0
 20 58  1  0
 21 59  1  0
 21 60  1  0
 21 61  1  0
 22 62  1  0
 22 63  1  0
 24 64  1  0
 24 65  1  0
 24 66  1  0
 25 67  1  0
 25 68  1  0
 25 69  1  0
 26 70  1  0
 27 71  1  0
 28 72  1  0
 30 73  1  0
 32 74  1  0
 33 75  1  0
 35 76  1  0
 39 77  1  0
 40 78  1  0
 40 79  1  0
M  END
>  <ALOGPS_LOGP>  (1) 
4.06

>  <ALOGPS_LOGS>  (1) 
-4.91

>  <ALOGPS_SOLUBILITY>  (1) 
4.19e-03 g/l

>  <DATABASE_ID>  (1) 
DB09396

>  <DATABASE_NAME>  (1) 
drugbank

>  <DRUGBANK_ID>  (1) 
DB09396

>  <DRUG_GROUPS>  (1) 
approved

>  <EXACT_MASS>  (1) 
565.249809154

>  <FORMULA>  (1) 
C32H39NO6S

>  <GENERIC_NAME>  (1) 
Propoxyphene napsylate

>  <INCHI_IDENTIFIER>  (1) 
InChI=1S/C22H29NO2.C10H8O3S.H2O/c1-5-21(24)25-22(18(2)17-23(3)4,20-14-10-7-11-15-20)16-19-12-8-6-9-13-19;11-14(12,13)10-6-5-8-3-1-2-4-9(8)7-10;/h6-15,18H,5,16-17H2,1-4H3;1-7H,(H,11,12,13);1H2/t18-,22+;;/m1../s1

>  <INCHI_KEY>  (1) 
GBKONKCASNNUQD-VGHSCWAPSA-N

>  <JCHEM_ACCEPTOR_COUNT>  (1) 
2

>  <JCHEM_ATOM_COUNT>  (1) 
79

>  <JCHEM_AVERAGE_POLARIZABILITY>  (1) 
38.54444113551145

>  <JCHEM_BIOAVAILABILITY>  (1) 
1

>  <JCHEM_DONOR_COUNT>  (1) 
0

>  <JCHEM_FORMAL_CHARGE>  (1) 
0

>  <JCHEM_GHOSE_FILTER>  (1) 
0

>  <JCHEM_IUPAC>  (1) 
(2S,3R)-4-(dimethylamino)-3-methyl-1,2-diphenylbutan-2-yl propanoate naphthalene-2-sulfonic acid hydrate

>  <JCHEM_LOGP>  (1) 
4.902155232666666

>  <JCHEM_MDDR_LIKE_RULE>  (1) 
1

>  <JCHEM_NUMBER_OF_RINGS>  (1) 
4

>  <JCHEM_PHYSIOLOGICAL_CHARGE>  (1) 
1

>  <JCHEM_PKA_STRONGEST_BASIC>  (1) 
9.517055044851146

>  <JCHEM_POLAR_SURFACE_AREA>  (1) 
29.54

>  <JCHEM_REFRACTIVITY>  (1) 
102.88060000000002

>  <JCHEM_ROTATABLE_BOND_COUNT>  (1) 
10

>  <JCHEM_RULE_OF_FIVE>  (1) 
0

>  <JCHEM_TRADITIONAL_IUPAC>  (1) 
2-naphthalenesulfonic acid propoxyphene hydrate

>  <JCHEM_VEBER_RULE>  (1) 
1

>  <MOLECULAR_WEIGHT>  (1) 
565.73

>  <PRODUCTS>  (1) 
Darvon-N; Propoxyphene Napsylate and Acetaminophen; Propoxyphene and Acetaminophen

>  <SMILES>  (1) 
O.OS(=O)(=O)C1=CC2=CC=CC=C2C=C1.CCC(=O)O[C@@](CC1=CC=CC=C1)([C@H](C)CN(C)C)C1=CC=CC=C1

>  <SYNONYMS>  (1) 
Dextropropoxyphene napsilate

$$$$
