
     RDKit          2D

 39 42  0  0  0  0  0  0  0  0999 V2000
   -0.4571    0.0415    0.0000 C   0  0  0  0  0  0  0  0  0  0  0  0
   -0.9558    0.7065    0.0000 C   0  0  0  0  0  0  0  0  0  0  0  0
   -0.7481    1.4962    0.0000 C   0  0  0  0  0  0  0  0  0  0  0  0
    0.0000    1.8702    0.0000 C   0  0  0  0  0  0  0  0  0  0  0  0
    0.3740    0.0415    0.0000 C   0  0  0  0  0  0  0  0  0  0  0  0
    0.7481    1.4962    0.0000 C   0  0  0  0  0  0  0  0  0  0  0  0
    0.9143    0.6650    0.0000 C   0  0  0  0  0  0  0  0  0  0  0  0
   -1.3299    2.0780    0.0000 C   0  0  0  0  0  0  0  0  0  0  0  0
   -2.1196    1.8702    0.0000 C   0  0  0  0  0  0  0  0  0  0  0  0
   -2.3273    1.0390    0.0000 C   0  0  0  0  0  0  0  0  0  0  0  0
   -1.7455    0.4987    0.0000 C   0  0  0  0  0  0  0  0  0  0  0  0
    1.7039    0.4156    0.0000 C   0  0  0  0  0  0  0  0  0  0  0  0
    2.3273    0.9558    0.0000 C   0  0  0  0  0  0  0  0  0  0  0  0
    2.1611    1.7870    0.0000 C   0  0  0  0  0  0  0  0  0  0  0  0
    1.3715    2.0364    0.0000 C   0  0  0  0  0  0  0  0  0  0  0  0
   -0.8727   -0.6650    0.0000 C   0  0  0  0  0  0  0  0  0  0  0  0
   -0.4571   -1.3715    0.0000 N   0  0  0  0  0  0  0  0  0  0  0  0
    0.3740   -1.3715    0.0000 C   0  0  0  0  0  0  0  0  0  0  0  0
    0.7896   -0.6650    0.0000 C   0  0  0  0  0  0  0  0  0  0  0  0
   -0.9143   -2.0780    0.0000 C   0  0  0  0  0  0  0  0  0  0  0  0
    0.0000    0.0000    0.0000 H   0  0  0  0  0  0  0  0  0  0  0  0
    0.0000    0.0000    0.0000 H   0  0  0  0  0  0  0  0  0  0  0  0
    0.0000    0.0000    0.0000 H   0  0  0  0  0  0  0  0  0  0  0  0
    0.0000    0.0000    0.0000 H   0  0  0  0  0  0  0  0  0  0  0  0
    0.0000    0.0000    0.0000 H   0  0  0  0  0  0  0  0  0  0  0  0
    0.0000    0.0000    0.0000 H   0  0  0  0  0  0  0  0  0  0  0  0
    0.0000    0.0000    0.0000 H   0  0  0  0  0  0  0  0  0  0  0  0
    0.0000    0.0000    0.0000 H   0  0  0  0  0  0  0  0  0  0  0  0
    0.0000    0.0000    0.0000 H   0  0  0  0  0  0  0  0  0  0  0  0
    0.0000    0.0000    0.0000 H   0  0  0  0  0  0  0  0  0  0  0  0
    0.0000    0.0000    0.0000 H   0  0  0  0  0  0  0  0  0  0  0  0
    0.0000    0.0000    0.0000 H   0  0  0  0  0  0  0  0  0  0  0  0
    0.0000    0.0000    0.0000 H   0  0  0  0  0  0  0  0  0  0  0  0
    0.0000    0.0000    0.0000 H   0  0  0  0  0  0  0  0  0  0  0  0
    0.0000    0.0000    0.0000 H   0  0  0  0  0  0  0  0  0  0  0  0
    0.0000    0.0000    0.0000 H   0  0  0  0  0  0  0  0  0  0  0  0
    0.0000    0.0000    0.0000 H   0  0  0  0  0  0  0  0  0  0  0  0
    0.0000    0.0000    0.0000 H   0  0  0  0  0  0  0  0  0  0  0  0
    0.0000    0.0000    0.0000 H   0  0  0  0  0  0  0  0  0  0  0  0
  3  4  1  0
  1  5  2  0
  4  6  1  0
  2  3  2  0
  5  7  1  0
  1  2  1  0
  6  7  2  0
  3  8  1  0
  8  9  2  0
  9 10  1  0
 10 11  2  0
  2 11  1  0
  7 12  1  0
 12 13  2  0
 13 14  1  0
 14 15  2  0
  6 15  1  0
  1 16  1  0
 16 17  1  0
 17 18  1  0
 18 19  1  0
  5 19  1  0
 17 20  1  0
  4 21  1  0
  4 22  1  0
  8 23  1  0
  9 24  1  0
 10 25  1  0
 11 26  1  0
 12 27  1  0
 13 28  1  0
 14 29  1  0
 15 30  1  0
 16 31  1  0
 16 32  1  0
 18 33  1  0
 18 34  1  0
 19 35  1  0
 19 36  1  0
 20 37  1  0
 20 38  1  0
 20 39  1  0
M  END
>  <ALOGPS_LOGP>  (1) 
3.96

>  <ALOGPS_LOGS>  (1) 
-3.89

>  <ALOGPS_SOLUBILITY>  (1) 
3.38e-02 g/l

>  <DATABASE_ID>  (1) 
DB09304

>  <DATABASE_NAME>  (1) 
drugbank

>  <DRUGBANK_ID>  (1) 
DB09304

>  <DRUG_GROUPS>  (1) 
approved

>  <EXACT_MASS>  (1) 
261.151749616

>  <FORMULA>  (1) 
C19H19N

>  <GENERIC_NAME>  (1) 
Setiptiline

>  <INCHI_IDENTIFIER>  (1) 
InChI=1S/C19H19N/c1-20-11-10-18-16-8-4-2-6-14(16)12-15-7-3-5-9-17(15)19(18)13-20/h2-9H,10-13H2,1H3

>  <INCHI_KEY>  (1) 
GVPIXRLYKVFFMK-UHFFFAOYSA-N

>  <JCHEM_ACCEPTOR_COUNT>  (1) 
1

>  <JCHEM_ATOM_COUNT>  (1) 
39

>  <JCHEM_AVERAGE_POLARIZABILITY>  (1) 
30.491276869794092

>  <JCHEM_BIOAVAILABILITY>  (1) 
1

>  <JCHEM_DONOR_COUNT>  (1) 
0

>  <JCHEM_FORMAL_CHARGE>  (1) 
0

>  <JCHEM_GHOSE_FILTER>  (1) 
1

>  <JCHEM_IUPAC>  (1) 
4-methyl-4-azatetracyclo[13.4.0.0²,⁷.0⁸,¹³]nonadeca-1(19),2(7),8,10,12,15,17-heptaene

>  <JCHEM_LOGP>  (1) 
3.9848667669999998

>  <JCHEM_MDDR_LIKE_RULE>  (1) 
0

>  <JCHEM_NUMBER_OF_RINGS>  (1) 
4

>  <JCHEM_PHYSIOLOGICAL_CHARGE>  (1) 
1

>  <JCHEM_PKA_STRONGEST_BASIC>  (1) 
7.442712035072722

>  <JCHEM_POLAR_SURFACE_AREA>  (1) 
3.24

>  <JCHEM_REFRACTIVITY>  (1) 
85.52590000000001

>  <JCHEM_ROTATABLE_BOND_COUNT>  (1) 
0

>  <JCHEM_RULE_OF_FIVE>  (1) 
1

>  <JCHEM_TRADITIONAL_IUPAC>  (1) 
setiptiline

>  <JCHEM_VEBER_RULE>  (1) 
1

>  <MOLECULAR_WEIGHT>  (1) 
261.368

>  <SALTS>  (1) 
Setiptiline maleate

>  <SMILES>  (1) 
CN1CCC2=C(C1)C1=CC=CC=C1CC1=CC=CC=C21

$$$$
