
     RDKit          2D

 34 36  0  0  0  0  0  0  0  0999 V2000
   -0.3544   -0.2013    0.0000 O   0  0  0  0  0  0  0  0  0  0  0  0
    0.3620    0.2079    0.0000 C   0  0  0  0  0  0  0  0  0  0  0  0
    0.3657    1.0329    0.0000 C   0  0  0  0  0  0  0  0  0  0  0  0
   -0.3468    1.4486    0.0000 C   0  0  0  0  0  0  0  0  0  0  0  0
   -0.3431    2.2736    0.0000 O   0  0  0  0  0  0  0  0  0  0  0  0
   -1.7720    2.2802    0.0000 O   0  0  0  0  0  0  0  0  0  0  0  0
   -1.7758    1.4552    0.0000 C   0  0  0  0  0  0  0  0  0  0  0  0
   -2.4921    1.0460    0.0000 C   0  0  0  0  0  0  0  0  0  0  0  0
   -1.0632    1.0394    0.0000 C   0  0  0  0  0  0  0  0  0  0  0  0
   -1.0670    0.2144    0.0000 C   0  0  0  0  0  0  0  0  0  0  0  0
   -1.7833   -0.1948    0.0000 C   0  0  0  0  0  0  0  0  0  0  0  0
   -2.4959    0.2210    0.0000 C   0  0  0  0  0  0  0  0  0  0  0  0
   -3.2123   -0.1883    0.0000 O   0  0  0  0  0  0  0  0  0  0  0  0
    1.7796   -2.2736    0.0000 O   0  0  0  0  0  0  0  0  0  0  0  0
    1.7833   -1.4486    0.0000 C   0  0  0  0  0  0  0  0  0  0  0  0
    1.0708   -1.0329    0.0000 C   0  0  0  0  0  0  0  0  0  0  0  0
    1.0745   -0.2079    0.0000 C   0  0  0  0  0  0  0  0  0  0  0  0
    1.7909    0.2013    0.0000 C   0  0  0  0  0  0  0  0  0  0  0  0
    2.5035   -0.2144    0.0000 C   0  0  0  0  0  0  0  0  0  0  0  0
    2.4997   -1.0394    0.0000 C   0  0  0  0  0  0  0  0  0  0  0  0
    3.2123   -1.4552    0.0000 O   0  0  0  0  0  0  0  0  0  0  0  0
    3.2085   -2.2802    0.0000 C   0  0  0  0  0  0  0  0  0  0  0  0
    0.0000    0.0000    0.0000 H   0  0  0  0  0  0  0  0  0  0  0  0
    0.0000    0.0000    0.0000 H   0  0  0  0  0  0  0  0  0  0  0  0
    0.0000    0.0000    0.0000 H   0  0  0  0  0  0  0  0  0  0  0  0
    0.0000    0.0000    0.0000 H   0  0  0  0  0  0  0  0  0  0  0  0
    0.0000    0.0000    0.0000 H   0  0  0  0  0  0  0  0  0  0  0  0
    0.0000    0.0000    0.0000 H   0  0  0  0  0  0  0  0  0  0  0  0
    0.0000    0.0000    0.0000 H   0  0  0  0  0  0  0  0  0  0  0  0
    0.0000    0.0000    0.0000 H   0  0  0  0  0  0  0  0  0  0  0  0
    0.0000    0.0000    0.0000 H   0  0  0  0  0  0  0  0  0  0  0  0
    0.0000    0.0000    0.0000 H   0  0  0  0  0  0  0  0  0  0  0  0
    0.0000    0.0000    0.0000 H   0  0  0  0  0  0  0  0  0  0  0  0
    0.0000    0.0000    0.0000 H   0  0  0  0  0  0  0  0  0  0  0  0
  1  2  1  0
  1 10  1  0
  2  3  2  0
  2 17  1  0
  3  4  1  0
  4  5  2  0
  4  9  1  0
  6  7  1  0
  7  8  2  0
  7  9  1  0
  8 12  1  0
  9 10  2  0
 10 11  1  0
 11 12  2  0
 12 13  1  0
 14 15  1  0
 15 16  2  0
 15 20  1  0
 16 17  1  0
 17 18  2  0
 18 19  1  0
 19 20  2  0
 20 21  1  0
 21 22  1  0
  3 23  1  0
  6 24  1  0
  8 25  1  0
 11 26  1  0
 13 27  1  0
 14 28  1  0
 16 29  1  0
 18 30  1  0
 19 31  1  0
 22 32  1  0
 22 33  1  0
 22 34  1  0
M  END
>  <ALOGPS_LOGP>  (1) 
3.06

>  <ALOGPS_LOGS>  (1) 
-3.60

>  <ALOGPS_SOLUBILITY>  (1) 
7.54e-02 g/l

>  <DATABASE_ID>  (1) 
DB11259

>  <DATABASE_NAME>  (1) 
drugbank

>  <DRUGBANK_ID>  (1) 
DB11259

>  <DRUG_GROUPS>  (1) 
approved

>  <EXACT_MASS>  (1) 
300.063388116

>  <FORMULA>  (1) 
C16H12O6

>  <GENERIC_NAME>  (1) 
Diosmetin

>  <INCHI_IDENTIFIER>  (1) 
InChI=1S/C16H12O6/c1-21-13-3-2-8(4-10(13)18)14-7-12(20)16-11(19)5-9(17)6-15(16)22-14/h2-7,17-19H,1H3

>  <INCHI_KEY>  (1) 
MBNGWHIJMBWFHU-UHFFFAOYSA-N

>  <JCHEM_ACCEPTOR_COUNT>  (1) 
6

>  <JCHEM_AVERAGE_POLARIZABILITY>  (1) 
29.83669989946849

>  <JCHEM_BIOAVAILABILITY>  (1) 
1

>  <JCHEM_DONOR_COUNT>  (1) 
3

>  <JCHEM_FORMAL_CHARGE>  (1) 
0

>  <JCHEM_GHOSE_FILTER>  (1) 
1

>  <JCHEM_IUPAC>  (1) 
5,7-dihydroxy-2-(3-hydroxy-4-methoxyphenyl)-4H-chromen-4-one

>  <JCHEM_LOGP>  (1) 
2.5490178679999995

>  <JCHEM_MDDR_LIKE_RULE>  (1) 
0

>  <JCHEM_NUMBER_OF_RINGS>  (1) 
3

>  <JCHEM_PHYSIOLOGICAL_CHARGE>  (1) 
-1

>  <JCHEM_PKA>  (1) 
9.1188900746853

>  <JCHEM_PKA_STRONGEST_ACIDIC>  (1) 
6.637302029241538

>  <JCHEM_PKA_STRONGEST_BASIC>  (1) 
-4.774841182860492

>  <JCHEM_POLAR_SURFACE_AREA>  (1) 
96.22000000000001

>  <JCHEM_REFRACTIVITY>  (1) 
79.37710000000001

>  <JCHEM_ROTATABLE_BOND_COUNT>  (1) 
2

>  <JCHEM_RULE_OF_FIVE>  (1) 
1

>  <JCHEM_TRADITIONAL_IUPAC>  (1) 
diosmetin

>  <JCHEM_VEBER_RULE>  (1) 
0

>  <MOLECULAR_WEIGHT>  (1) 
300.2629

>  <PRODUCTS>  (1) 
Gongjinhyang Seol Whitening; Isa Knox Wxii Plus Whitening Revolution Serum; Isaknox X202 Whitening Secret Essence; Whoo Gongjinhyang Seol Whitening Jin Essence

>  <SMILES>  (1) 
COC1=C(O)C=C(C=C1)C1=CC(=O)C2=C(O1)C=C(O)C=C2O

>  <SYNONYMS>  (1) 
5,7,3'-trihydroxy-4'-methoxyflavone

$$$$
