
     RDKit          2D

 47 50  0  0  1  0  0  0  0  0999 V2000
   25.2305  -14.5000    0.0000 O   0  0  0  0  0  0  0  0  0  0  0  0
   20.2542  -18.0546    0.0000 O   0  0  0  0  0  0  0  0  0  0  0  0
   24.7035  -15.5364    0.0000 C   0  0  0  0  0  0  0  0  0  0  0  0
   24.7035  -16.3614    0.0000 C   0  0  0  0  0  0  0  0  0  0  0  0
   23.9891  -16.7739    0.0000 C   0  0  0  0  0  0  0  0  0  0  0  0
   25.4841  -15.2850    0.0000 C   0  0  0  0  0  0  0  0  0  0  0  0
   25.4841  -16.6129    0.0000 C   0  0  0  0  0  0  0  0  0  0  0  0
   25.9656  -15.9489    0.0000 C   0  0  0  0  0  0  0  0  0  0  0  0
   24.7035  -14.7114    0.0000 C   0  0  0  0  0  0  0  0  0  0  0  0
   23.2745  -16.3614    0.0000 C   0  0  0  0  0  0  0  0  0  0  0  0
   23.9891  -15.1239    0.0000 C   0  0  0  0  0  0  0  0  0  0  0  0
   24.0023  -17.6332    0.0000 C   0  0  0  0  0  0  0  0  0  0  0  0
   23.2745  -15.5364    0.0000 C   0  0  0  0  0  0  0  0  0  0  0  0
   22.5238  -16.7796    0.0000 C   0  0  0  0  0  0  0  0  0  0  0  0
   23.2614  -18.0686    0.0000 C   0  0  0  0  0  0  0  0  0  0  0  0
   22.5172  -17.6389    0.0000 C   0  0  0  0  0  0  0  0  0  0  0  0
   26.1524  -14.8012    0.0000 C   0  0  0  0  0  0  0  0  0  0  0  0
   23.9891  -14.2989    0.0000 C   0  0  0  0  0  0  0  0  0  0  0  0
   21.7592  -16.3142    0.0000 C   0  0  0  0  0  0  0  0  0  0  0  0
   21.7455  -18.0924    0.0000 C   0  0  0  0  0  0  0  0  0  0  0  0
   20.9771  -16.7498    0.0000 C   0  0  0  0  0  0  0  0  0  0  0  0
   20.9702  -17.6449    0.0000 C   0  0  0  0  0  0  0  0  0  0  0  0
   26.8207  -14.3175    0.0000 C   0  0  0  0  0  0  0  0  0  0  0  0
    0.0000    0.0000    0.0000 H   0  0  0  0  0  0  0  0  0  0  0  0
    0.0000    0.0000    0.0000 H   0  0  0  0  0  0  0  0  0  0  0  0
    0.0000    0.0000    0.0000 H   0  0  0  0  0  0  0  0  0  0  0  0
    0.0000    0.0000    0.0000 H   0  0  0  0  0  0  0  0  0  0  0  0
    0.0000    0.0000    0.0000 H   0  0  0  0  0  0  0  0  0  0  0  0
    0.0000    0.0000    0.0000 H   0  0  0  0  0  0  0  0  0  0  0  0
    0.0000    0.0000    0.0000 H   0  0  0  0  0  0  0  0  0  0  0  0
    0.0000    0.0000    0.0000 H   0  0  0  0  0  0  0  0  0  0  0  0
    0.0000    0.0000    0.0000 H   0  0  0  0  0  0  0  0  0  0  0  0
    0.0000    0.0000    0.0000 H   0  0  0  0  0  0  0  0  0  0  0  0
    0.0000    0.0000    0.0000 H   0  0  0  0  0  0  0  0  0  0  0  0
    0.0000    0.0000    0.0000 H   0  0  0  0  0  0  0  0  0  0  0  0
    0.0000    0.0000    0.0000 H   0  0  0  0  0  0  0  0  0  0  0  0
    0.0000    0.0000    0.0000 H   0  0  0  0  0  0  0  0  0  0  0  0
    0.0000    0.0000    0.0000 H   0  0  0  0  0  0  0  0  0  0  0  0
    0.0000    0.0000    0.0000 H   0  0  0  0  0  0  0  0  0  0  0  0
    0.0000    0.0000    0.0000 H   0  0  0  0  0  0  0  0  0  0  0  0
    0.0000    0.0000    0.0000 H   0  0  0  0  0  0  0  0  0  0  0  0
    0.0000    0.0000    0.0000 H   0  0  0  0  0  0  0  0  0  0  0  0
    0.0000    0.0000    0.0000 H   0  0  0  0  0  0  0  0  0  0  0  0
    0.0000    0.0000    0.0000 H   0  0  0  0  0  0  0  0  0  0  0  0
    0.0000    0.0000    0.0000 H   0  0  0  0  0  0  0  0  0  0  0  0
    0.0000    0.0000    0.0000 H   0  0  0  0  0  0  0  0  0  0  0  0
    0.0000    0.0000    0.0000 H   0  0  0  0  0  0  0  0  0  0  0  0
  6  1  1  1
  2 22  2  0
  3  4  1  0
  3  6  1  0
  3  9  1  1
  3 11  1  0
  4  5  1  0
  4  7  1  0
  5 10  1  0
  5 12  1  0
  6  8  1  0
  6 17  1  0
  7  8  1  0
  9 18  1  0
 10 13  1  0
 10 14  2  0
 11 13  2  0
 12 15  1  0
 14 16  1  0
 14 19  1  0
 15 16  1  0
 16 20  2  0
 17 23  3  0
 19 21  1  0
 20 22  1  0
 21 22  1  0
  1 24  1  0
  4 25  1  6
  5 26  1  1
  7 27  1  0
  7 28  1  0
  8 29  1  0
  8 30  1  0
  9 31  1  0
  9 32  1  0
 11 33  1  0
 12 34  1  0
 12 35  1  0
 13 36  1  0
 15 37  1  0
 15 38  1  0
 18 39  1  0
 18 40  1  0
 18 41  1  0
 19 42  1  0
 19 43  1  0
 20 44  1  0
 21 45  1  0
 21 46  1  0
 23 47  1  0
M  END
>  <ALOGPS_LOGP>  (1) 
3.39

>  <ALOGPS_LOGS>  (1) 
-4.50

>  <ALOGPS_SOLUBILITY>  (1) 
9.69e-03 g/l

>  <DATABASE_ID>  (1) 
DB11619

>  <DATABASE_NAME>  (1) 
drugbank

>  <DRUGBANK_ID>  (1) 
DB11619

>  <DRUG_GROUPS>  (1) 
approved

>  <EXACT_MASS>  (1) 
308.177630012

>  <FORMULA>  (1) 
C21H24O2

>  <GENERIC_NAME>  (1) 
Gestrinone

>  <INCHI_IDENTIFIER>  (1) 
InChI=1S/C21H24O2/c1-3-20-11-9-17-16-8-6-15(22)13-14(16)5-7-18(17)19(20)10-12-21(20,23)4-2/h2,9,11,13,18-19,23H,3,5-8,10,12H2,1H3/t18-,19+,20+,21+/m1/s1

>  <INCHI_KEY>  (1) 
BJJXHLWLUDYTGC-ANULTFPQSA-N

>  <JCHEM_ACCEPTOR_COUNT>  (1) 
2

>  <JCHEM_AVERAGE_POLARIZABILITY>  (1) 
35.65394638415893

>  <JCHEM_BIOAVAILABILITY>  (1) 
1

>  <JCHEM_DONOR_COUNT>  (1) 
1

>  <JCHEM_FORMAL_CHARGE>  (1) 
0

>  <JCHEM_GHOSE_FILTER>  (1) 
1

>  <JCHEM_IUPAC>  (1) 
(10S,11S,14R,15S)-15-ethyl-14-ethynyl-14-hydroxytetracyclo[8.7.0.0²,⁷.0¹¹,¹⁵]heptadeca-1,6,16-trien-5-one

>  <JCHEM_LOGP>  (1) 
2.8506376396666657

>  <JCHEM_MDDR_LIKE_RULE>  (1) 
0

>  <JCHEM_NUMBER_OF_RINGS>  (1) 
4

>  <JCHEM_PHYSIOLOGICAL_CHARGE>  (1) 
0

>  <JCHEM_PKA>  (1) 
18.902731547289648

>  <JCHEM_PKA_STRONGEST_ACIDIC>  (1) 
17.881263696141485

>  <JCHEM_PKA_STRONGEST_BASIC>  (1) 
-1.5382927883559723

>  <JCHEM_POLAR_SURFACE_AREA>  (1) 
37.3

>  <JCHEM_REFRACTIVITY>  (1) 
93.72549999999998

>  <JCHEM_ROTATABLE_BOND_COUNT>  (1) 
1

>  <JCHEM_RULE_OF_FIVE>  (1) 
1

>  <JCHEM_TRADITIONAL_IUPAC>  (1) 
gestrinone

>  <JCHEM_VEBER_RULE>  (1) 
1

>  <MOLECULAR_WEIGHT>  (1) 
308.4141

>  <SMILES>  (1) 
[H][C@@]12CC[C@@](O)(C#C)[C@@]1(CC)C=CC1=C3CCC(=O)C=C3CC[C@@]21[H]

>  <SYNONYMS>  (1) 
Ethylnorgestrienone

$$$$
