
     RDKit          2D

 64 64  0  0  0  0  0  0  0  0999 V2000
   -6.4302    0.2615    0.0000 C   0  0  0  0  0  0  0  0  0  0  0  0
   -6.4302   -0.5634    0.0000 C   0  0  0  0  0  0  0  0  0  0  0  0
   -5.7158   -0.9759    0.0000 C   0  0  0  0  0  0  0  0  0  0  0  0
   -5.0013   -0.5634    0.0000 C   0  0  0  0  0  0  0  0  0  0  0  0
   -5.0013    0.2615    0.0000 C   0  0  0  0  0  0  0  0  0  0  0  0
   -5.7158    0.6740    0.0000 C   0  0  0  0  0  0  0  0  0  0  0  0
   -4.2867    0.6740    0.0000 O   0  0  0  0  0  0  0  0  0  0  0  0
   -3.5724    0.2615    0.0000 C   0  0  0  0  0  0  0  0  0  0  0  0
   -2.8579    0.6740    0.0000 C   0  0  0  0  0  0  0  0  0  0  0  0
   -2.1434    0.2615    0.0000 N   0  0  0  0  0  0  0  0  0  0  0  0
   -1.4290   -0.1509    0.0000 C   0  0  0  0  0  0  0  0  0  0  0  0
   -2.5559   -0.4529    0.0000 C   0  0  0  0  0  0  0  0  0  0  0  0
   -1.7309    0.9759    0.0000 C   0  0  0  0  0  0  0  0  0  0  0  0
   -0.7145    0.2615    0.0000 C   0  0  0  0  0  0  0  0  0  0  0  0
    0.0000   -0.1509    0.0000 C   0  0  0  0  0  0  0  0  0  0  0  0
    0.7144    0.2615    0.0000 C   0  0  0  0  0  0  0  0  0  0  0  0
    1.4288   -0.1509    0.0000 C   0  0  0  0  0  0  0  0  0  0  0  0
    2.1433    0.2615    0.0000 C   0  0  0  0  0  0  0  0  0  0  0  0
    2.8579   -0.1509    0.0000 C   0  0  0  0  0  0  0  0  0  0  0  0
    3.5722    0.2615    0.0000 C   0  0  0  0  0  0  0  0  0  0  0  0
    4.2867   -0.1509    0.0000 C   0  0  0  0  0  0  0  0  0  0  0  0
    5.0012    0.2615    0.0000 C   0  0  0  0  0  0  0  0  0  0  0  0
    5.7158   -0.1509    0.0000 C   0  0  0  0  0  0  0  0  0  0  0  0
    6.4302    0.2615    0.0000 C   0  0  0  0  0  0  0  0  0  0  0  0
    0.0000    0.0000    0.0000 H   0  0  0  0  0  0  0  0  0  0  0  0
    0.0000    0.0000    0.0000 H   0  0  0  0  0  0  0  0  0  0  0  0
    0.0000    0.0000    0.0000 H   0  0  0  0  0  0  0  0  0  0  0  0
    0.0000    0.0000    0.0000 H   0  0  0  0  0  0  0  0  0  0  0  0
    0.0000    0.0000    0.0000 H   0  0  0  0  0  0  0  0  0  0  0  0
    0.0000    0.0000    0.0000 H   0  0  0  0  0  0  0  0  0  0  0  0
    0.0000    0.0000    0.0000 H   0  0  0  0  0  0  0  0  0  0  0  0
    0.0000    0.0000    0.0000 H   0  0  0  0  0  0  0  0  0  0  0  0
    0.0000    0.0000    0.0000 H   0  0  0  0  0  0  0  0  0  0  0  0
    0.0000    0.0000    0.0000 H   0  0  0  0  0  0  0  0  0  0  0  0
    0.0000    0.0000    0.0000 H   0  0  0  0  0  0  0  0  0  0  0  0
    0.0000    0.0000    0.0000 H   0  0  0  0  0  0  0  0  0  0  0  0
    0.0000    0.0000    0.0000 H   0  0  0  0  0  0  0  0  0  0  0  0
    0.0000    0.0000    0.0000 H   0  0  0  0  0  0  0  0  0  0  0  0
    0.0000    0.0000    0.0000 H   0  0  0  0  0  0  0  0  0  0  0  0
    0.0000    0.0000    0.0000 H   0  0  0  0  0  0  0  0  0  0  0  0
    0.0000    0.0000    0.0000 H   0  0  0  0  0  0  0  0  0  0  0  0
    0.0000    0.0000    0.0000 H   0  0  0  0  0  0  0  0  0  0  0  0
    0.0000    0.0000    0.0000 H   0  0  0  0  0  0  0  0  0  0  0  0
    0.0000    0.0000    0.0000 H   0  0  0  0  0  0  0  0  0  0  0  0
    0.0000    0.0000    0.0000 H   0  0  0  0  0  0  0  0  0  0  0  0
    0.0000    0.0000    0.0000 H   0  0  0  0  0  0  0  0  0  0  0  0
    0.0000    0.0000    0.0000 H   0  0  0  0  0  0  0  0  0  0  0  0
    0.0000    0.0000    0.0000 H   0  0  0  0  0  0  0  0  0  0  0  0
    0.0000    0.0000    0.0000 H   0  0  0  0  0  0  0  0  0  0  0  0
    0.0000    0.0000    0.0000 H   0  0  0  0  0  0  0  0  0  0  0  0
    0.0000    0.0000    0.0000 H   0  0  0  0  0  0  0  0  0  0  0  0
    0.0000    0.0000    0.0000 H   0  0  0  0  0  0  0  0  0  0  0  0
    0.0000    0.0000    0.0000 H   0  0  0  0  0  0  0  0  0  0  0  0
    0.0000    0.0000    0.0000 H   0  0  0  0  0  0  0  0  0  0  0  0
    0.0000    0.0000    0.0000 H   0  0  0  0  0  0  0  0  0  0  0  0
    0.0000    0.0000    0.0000 H   0  0  0  0  0  0  0  0  0  0  0  0
    0.0000    0.0000    0.0000 H   0  0  0  0  0  0  0  0  0  0  0  0
    0.0000    0.0000    0.0000 H   0  0  0  0  0  0  0  0  0  0  0  0
    0.0000    0.0000    0.0000 H   0  0  0  0  0  0  0  0  0  0  0  0
    0.0000    0.0000    0.0000 H   0  0  0  0  0  0  0  0  0  0  0  0
    0.0000    0.0000    0.0000 H   0  0  0  0  0  0  0  0  0  0  0  0
    0.0000    0.0000    0.0000 H   0  0  0  0  0  0  0  0  0  0  0  0
    0.0000    0.0000    0.0000 H   0  0  0  0  0  0  0  0  0  0  0  0
    0.0000    0.0000    0.0000 H   0  0  0  0  0  0  0  0  0  0  0  0
 10 12  1  0
  5  6  1  0
 10 13  1  0
  6  1  2  0
 11 14  1  0
  2  3  2  0
 14 15  1  0
  5  7  1  0
 15 16  1  0
 16 17  1  0
  7  8  1  0
 17 18  1  0
  3  4  1  0
 18 19  1  0
  8  9  1  0
 19 20  1  0
  1  2  1  0
 20 21  1  0
  9 10  1  0
 21 22  1  0
  4  5  2  0
 22 23  1  0
 10 11  1  0
 23 24  1  0
  1 25  1  0
  2 26  1  0
  3 27  1  0
  4 28  1  0
  6 29  1  0
  8 30  1  0
  8 31  1  0
  9 32  1  0
  9 33  1  0
 11 34  1  0
 11 35  1  0
 12 36  1  0
 12 37  1  0
 12 38  1  0
 13 39  1  0
 13 40  1  0
 13 41  1  0
 14 42  1  0
 14 43  1  0
 15 44  1  0
 15 45  1  0
 16 46  1  0
 16 47  1  0
 17 48  1  0
 17 49  1  0
 18 50  1  0
 18 51  1  0
 19 52  1  0
 19 53  1  0
 20 54  1  0
 20 55  1  0
 21 56  1  0
 21 57  1  0
 22 58  1  0
 22 59  1  0
 23 60  1  0
 23 61  1  0
 24 62  1  0
 24 63  1  0
 24 64  1  0
M  CHG  1  10   1
M  END
>  <ALOGPS_LOGP>  (1) 
3.10

>  <ALOGPS_LOGS>  (1) 
-7.89

>  <ALOGPS_SOLUBILITY>  (1) 
4.80e-06 g/l

>  <DATABASE_ID>  (1) 
DB11594

>  <DATABASE_NAME>  (1) 
drugbank

>  <DRUGBANK_ID>  (1) 
DB11594

>  <DRUG_GROUPS>  (1) 
approved; experimental

>  <EXACT_MASS>  (1) 
334.310441332

>  <FORMULA>  (1) 
C22H40NO

>  <GENERIC_NAME>  (1) 
Domiphen

>  <INCHI_IDENTIFIER>  (1) 
InChI=1S/C22H40NO/c1-4-5-6-7-8-9-10-11-12-16-19-23(2,3)20-21-24-22-17-14-13-15-18-22/h13-15,17-18H,4-12,16,19-21H2,1-3H3/q+1

>  <INCHI_KEY>  (1) 
YXUPZGKORWTXID-UHFFFAOYSA-N

>  <JCHEM_ACCEPTOR_COUNT>  (1) 
1

>  <JCHEM_ATOM_COUNT>  (1) 
64

>  <JCHEM_AVERAGE_POLARIZABILITY>  (1) 
44.630673477831564

>  <JCHEM_BIOAVAILABILITY>  (1) 
1

>  <JCHEM_DONOR_COUNT>  (1) 
0

>  <JCHEM_FORMAL_CHARGE>  (1) 
1

>  <JCHEM_GHOSE_FILTER>  (1) 
1

>  <JCHEM_IUPAC>  (1) 
dodecyldimethyl(2-phenoxyethyl)azanium

>  <JCHEM_LOGP>  (1) 
2.552330790861588

>  <JCHEM_MDDR_LIKE_RULE>  (1) 
0

>  <JCHEM_NUMBER_OF_RINGS>  (1) 
1

>  <JCHEM_PHYSIOLOGICAL_CHARGE>  (1) 
1

>  <JCHEM_PKA_STRONGEST_BASIC>  (1) 
-4.871516296368249

>  <JCHEM_POLAR_SURFACE_AREA>  (1) 
9.23

>  <JCHEM_REFRACTIVITY>  (1) 
117.1355

>  <JCHEM_ROTATABLE_BOND_COUNT>  (1) 
15

>  <JCHEM_RULE_OF_FIVE>  (1) 
1

>  <JCHEM_TRADITIONAL_IUPAC>  (1) 
dodecyldimethyl(2-phenoxyethyl)azanium

>  <JCHEM_VEBER_RULE>  (1) 
0

>  <MOLECULAR_WEIGHT>  (1) 
334.567

>  <PRODUCTS>  (1) 
Antiseptique Pastille 1.5mg Cerise; Antiseptique Pastille 1.5mg Citron; Antiseptique Pastille 1.5mg Menthe; Antiseptique Pastille 1.5mg Miel Eucalyptus; Bronchodex Pastille 1.5mg Miel Euc; Bronchodex Pastilles 1.5mg Saveur Cerise; Bronchodex Pastilles 1.5mg Saveur Citron; Bronchodex Pastilles 1.5mg Saveur Menthe; Exoden Powder; Lander Orl Hygienic Mwh and Gargle; Mouthwash and Gargle; Nupercainal Antiseptic Cream; Ora-septic Cerises Loz 1.5mg; Oraseptic Pastille Antisep 1.5mg Citron; Oraseptic Pastille Antisep 1.5mg Menthe; Oraseptic Pastille Antisep 1.5mg Miel-eucal; Ultra Solugauze

>  <SALTS>  (1) 
Domiphen bromide

>  <SMILES>  (1) 
CCCCCCCCCCCC[N+](C)(C)CCOC1=CC=CC=C1

>  <SYNONYMS>  (1) 
(beta-phenoxyethyl)dimethyldodecylammonium; 1-dodecanaminium, n,n-dimethyl-n-(2-phenoxyethyl); Dodecyldimethyl(2-phenoxyethyl)ammonium; Domiphen cation; Domiphen ion; Phenododecinium

$$$$
