
     RDKit          2D

 23 18  0  0  0  0  0  0  0  0999 V2000
   -1.8266   -2.6219    0.0000 Al  0  0  0  0  0  0  0  0  0  0  0  0
   -1.8266   -0.4415    0.0000 O   0  0  0  0  0  0  0  0  0  0  0  0
   -1.0013   -0.4415    0.0000 S   0  0  0  0  0  0  0  0  0  0  0  0
   -0.1772   -0.4415    0.0000 O   0  0  0  0  0  0  0  0  0  0  0  0
   -1.0013   -1.2668    0.0000 O   0  0  0  0  0  0  0  0  0  0  0  0
   -1.0013    0.4415    0.0000 O   0  0  0  0  0  0  0  0  0  0  0  0
    1.2374   -0.5598    0.0000 O   0  0  0  0  0  0  0  0  0  0  0  0
    2.0626   -0.5598    0.0000 S   0  0  0  0  0  0  0  0  0  0  0  0
    2.8874   -0.5598    0.0000 O   0  0  0  0  0  0  0  0  0  0  0  0
    2.0626   -1.3845    0.0000 O   0  0  0  0  0  0  0  0  0  0  0  0
    2.0626    0.2649    0.0000 O   0  0  0  0  0  0  0  0  0  0  0  0
   -2.8874   -2.5630    0.0000 Al  0  0  0  0  0  0  0  0  0  0  0  0
   -1.8266    1.7972    0.0000 O   0  0  0  0  0  0  0  0  0  0  0  0
   -1.0013    1.7972    0.0000 S   0  0  0  0  0  0  0  0  0  0  0  0
   -0.1772    1.7972    0.0000 O   0  0  0  0  0  0  0  0  0  0  0  0
   -1.0013    0.9719    0.0000 O   0  0  0  0  0  0  0  0  0  0  0  0
   -1.0013    2.6219    0.0000 O   0  0  0  0  0  0  0  0  0  0  0  0
    0.0000    0.0000    0.0000 H   0  0  0  0  0  0  0  0  0  0  0  0
    0.0000    0.0000    0.0000 H   0  0  0  0  0  0  0  0  0  0  0  0
    0.0000    0.0000    0.0000 H   0  0  0  0  0  0  0  0  0  0  0  0
    0.0000    0.0000    0.0000 H   0  0  0  0  0  0  0  0  0  0  0  0
    0.0000    0.0000    0.0000 H   0  0  0  0  0  0  0  0  0  0  0  0
    0.0000    0.0000    0.0000 H   0  0  0  0  0  0  0  0  0  0  0  0
  2  3  1  0
  3  4  1  0
  3  5  2  0
  3  6  2  0
  7  8  1  0
  8  9  1  0
  8 10  2  0
  8 11  2  0
 13 14  1  0
 14 15  1  0
 14 16  2  0
 14 17  2  0
  1 18  1  0
  1 19  1  0
  1 20  1  0
 12 21  1  0
 12 22  1  0
 12 23  1  0
M  CHG  8   1   3   2  -1   4  -1   7  -1   9  -1  12   3  13  -1  15  -1
M  END
>  <DATABASE_ID>  (1) 
DB11239

>  <DATABASE_NAME>  (1) 
drugbank

>  <DRUGBANK_ID>  (1) 
DB11239

>  <DRUG_GROUPS>  (1) 
approved

>  <EXACT_MASS>  (1) 
341.818264416

>  <FORMULA>  (1) 
Al2O12S3

>  <GENERIC_NAME>  (1) 
Aluminum sulfate

>  <INCHI_IDENTIFIER>  (1) 
InChI=1S/2Al.3H2O4S/c;;3*1-5(2,3)4/h;;3*(H2,1,2,3,4)/q2*+3;;;/p-6

>  <INCHI_KEY>  (1) 
DIZPMCHEQGEION-UHFFFAOYSA-H

>  <JCHEM_ACCEPTOR_COUNT>  (1) 
4

>  <JCHEM_AVERAGE_POLARIZABILITY>  (1) 
5.805291890677037

>  <JCHEM_BIOAVAILABILITY>  (1) 
1

>  <JCHEM_DONOR_COUNT>  (1) 
0

>  <JCHEM_FORMAL_CHARGE>  (1) 
0

>  <JCHEM_GHOSE_FILTER>  (1) 
0

>  <JCHEM_IUPAC>  (1) 
dialuminium(3+) ion trisulfate

>  <JCHEM_LOGP>  (1) 
-0.8415520233333333

>  <JCHEM_MDDR_LIKE_RULE>  (1) 
0

>  <JCHEM_NUMBER_OF_RINGS>  (1) 
0

>  <JCHEM_PHYSIOLOGICAL_CHARGE>  (1) 
-2

>  <JCHEM_PKA>  (1) 
1.8964254257138706

>  <JCHEM_PKA_STRONGEST_ACIDIC>  (1) 
-3.034349054191991

>  <JCHEM_POLAR_SURFACE_AREA>  (1) 
80.25999999999999

>  <JCHEM_REFRACTIVITY>  (1) 
11.5274

>  <JCHEM_ROTATABLE_BOND_COUNT>  (1) 
0

>  <JCHEM_RULE_OF_FIVE>  (1) 
1

>  <JCHEM_TRADITIONAL_IUPAC>  (1) 
dialuminium(3+) ion trisulfate

>  <JCHEM_VEBER_RULE>  (1) 
0

>  <MOLECULAR_WEIGHT>  (1) 
342.151

>  <PRODUCTS>  (1) 
Aluminum Acetate Astringent; Assured; HIS Styptic Pencil; Nick Relief; Pascord 7 0.48mg/2.54cm; Rastringent II 250mg/ml; Shaving Factory Disposable Styptic Pencil; Sil Trax As No 10; Sil Trax As No 8; Stingose Asp 373mg/ml; Stingose Gel 20%; Styptic Pencil Stick 42.0%; Trim Men Styptic Pencil

>  <SMILES>  (1) 
[Al+3].[Al+3].[O-]S([O-])(=O)=O.[O-]S([O-])(=O)=O.[O-]S([O-])(=O)=O

>  <SYNONYMS>  (1) 
Aluminium sulfate; Aluminium sulfate anhydrous; Aluminum sulphate anhydrous; Dialuminum sulfate; Dialuminum trisulfate

$$$$
