
     RDKit          2D

 49 46  0  0  1  0  0  0  0  0999 V2000
   -2.0640    0.2292    0.0000 C   0  0  0  0  0  0  0  0  0  0  0  0
   -1.3496   -0.1833    0.0000 C   0  0  0  0  0  0  0  0  0  0  0  0
   -0.6351    0.2292    0.0000 C   0  0  0  0  0  0  0  0  0  0  0  0
    0.0794   -0.1833    0.0000 C   0  0  0  0  0  0  0  0  0  0  0  0
    0.7939    0.2292    0.0000 C   0  0  0  0  0  0  0  0  0  0  0  0
    1.5083   -0.1833    0.0000 C   0  0  0  0  0  0  0  0  0  0  0  0
   -2.7785   -0.1833    0.0000 O   0  0  0  0  0  0  0  0  0  0  0  0
   -1.3496   -1.0083    0.0000 O   0  0  0  0  0  0  0  0  0  0  0  0
   -0.6351    1.0542    0.0000 O   0  0  0  0  0  0  0  0  0  0  0  0
    0.0794   -1.0083    0.0000 O   0  0  0  0  0  0  0  0  0  0  0  0
    0.7939    1.0542    0.0000 O   0  0  0  0  0  0  0  0  0  0  0  0
    1.5083   -1.0083    0.0000 O   0  0  0  0  0  0  0  0  0  0  0  0
    2.2228    0.2292    0.0000 O   0  0  0  0  0  0  0  0  0  0  0  0
    5.5375    0.2669    0.0000 C   0  0  0  0  0  0  0  0  0  0  0  0
    6.2519   -0.1456    0.0000 C   0  0  0  0  0  0  0  0  0  0  0  0
    6.9664    0.2669    0.0000 C   0  0  0  0  0  0  0  0  0  0  0  0
    7.6809   -0.1456    0.0000 C   0  0  0  0  0  0  0  0  0  0  0  0
    8.3953    0.2669    0.0000 C   0  0  0  0  0  0  0  0  0  0  0  0
    9.1098   -0.1456    0.0000 C   0  0  0  0  0  0  0  0  0  0  0  0
    4.8230   -0.1456    0.0000 O   0  0  0  0  0  0  0  0  0  0  0  0
    6.2519   -0.9706    0.0000 O   0  0  0  0  0  0  0  0  0  0  0  0
    6.9664    1.0919    0.0000 O   0  0  0  0  0  0  0  0  0  0  0  0
    7.6809   -0.9706    0.0000 O   0  0  0  0  0  0  0  0  0  0  0  0
    8.3953    1.0919    0.0000 O   0  0  0  0  0  0  0  0  0  0  0  0
    9.8243    0.2669    0.0000 O   0  0  0  0  0  0  0  0  0  0  0  0
    9.1098   -0.9706    0.0000 O   0  0  0  0  0  0  0  0  0  0  0  0
    2.9373    0.6417    0.0000 Zn  0  0  0  0  0  0  0  0  0  0  0  0
    0.0000    0.0000    0.0000 H   0  0  0  0  0  0  0  0  0  0  0  0
    0.0000    0.0000    0.0000 H   0  0  0  0  0  0  0  0  0  0  0  0
    0.0000    0.0000    0.0000 H   0  0  0  0  0  0  0  0  0  0  0  0
    0.0000    0.0000    0.0000 H   0  0  0  0  0  0  0  0  0  0  0  0
    0.0000    0.0000    0.0000 H   0  0  0  0  0  0  0  0  0  0  0  0
    0.0000    0.0000    0.0000 H   0  0  0  0  0  0  0  0  0  0  0  0
    0.0000    0.0000    0.0000 H   0  0  0  0  0  0  0  0  0  0  0  0
    0.0000    0.0000    0.0000 H   0  0  0  0  0  0  0  0  0  0  0  0
    0.0000    0.0000    0.0000 H   0  0  0  0  0  0  0  0  0  0  0  0
    0.0000    0.0000    0.0000 H   0  0  0  0  0  0  0  0  0  0  0  0
    0.0000    0.0000    0.0000 H   0  0  0  0  0  0  0  0  0  0  0  0
    0.0000    0.0000    0.0000 H   0  0  0  0  0  0  0  0  0  0  0  0
    0.0000    0.0000    0.0000 H   0  0  0  0  0  0  0  0  0  0  0  0
    0.0000    0.0000    0.0000 H   0  0  0  0  0  0  0  0  0  0  0  0
    0.0000    0.0000    0.0000 H   0  0  0  0  0  0  0  0  0  0  0  0
    0.0000    0.0000    0.0000 H   0  0  0  0  0  0  0  0  0  0  0  0
    0.0000    0.0000    0.0000 H   0  0  0  0  0  0  0  0  0  0  0  0
    0.0000    0.0000    0.0000 H   0  0  0  0  0  0  0  0  0  0  0  0
    0.0000    0.0000    0.0000 H   0  0  0  0  0  0  0  0  0  0  0  0
    0.0000    0.0000    0.0000 H   0  0  0  0  0  0  0  0  0  0  0  0
    0.0000    0.0000    0.0000 H   0  0  0  0  0  0  0  0  0  0  0  0
    0.0000    0.0000    0.0000 H   0  0  0  0  0  0  0  0  0  0  0  0
  2  1  1  1
  3  2  1  0
  4  3  1  0
  5  4  1  0
  5  6  1  6
  7  1  1  0
  2  8  1  0
  3  9  1  1
  4 10  1  6
  5 11  1  0
 12  6  2  0
 13  6  1  0
 15 14  1  6
 16 15  1  0
 17 16  1  0
 18 17  1  0
 18 19  1  6
 20 14  1  0
 15 21  1  0
 16 22  1  1
 17 23  1  1
 18 24  1  0
 25 19  2  0
 26 19  1  0
  1 28  1  0
  1 29  1  0
  2 30  1  0
  3 31  1  0
  4 32  1  0
  5 33  1  0
  7 34  1  0
  8 35  1  0
  9 36  1  0
 10 37  1  0
 11 38  1  0
 14 39  1  0
 14 40  1  0
 15 41  1  0
 16 42  1  0
 17 43  1  0
 18 44  1  0
 20 45  1  0
 21 46  1  0
 22 47  1  0
 23 48  1  0
 24 49  1  0
M  CHG  3  13  -1  26  -1  27   2
M  END
>  <ALOGPS_LOGP>  (1) 
-1.95

>  <ALOGPS_LOGS>  (1) 
-1.06

>  <ALOGPS_SOLUBILITY>  (1) 
4.00e+01 g/l

>  <DATABASE_ID>  (1) 
DB11248

>  <DATABASE_NAME>  (1) 
drugbank

>  <DRUGBANK_ID>  (1) 
DB11248

>  <DRUG_GROUPS>  (1) 
approved; vet_approved

>  <EXACT_MASS>  (1) 
454.030097

>  <FORMULA>  (1) 
C12H22O14Zn

>  <GENERIC_NAME>  (1) 
Zinc gluconate

>  <INCHI_IDENTIFIER>  (1) 
InChI=1S/2C6H12O7.Zn/c2*7-1-2(8)3(9)4(10)5(11)6(12)13;/h2*2-5,7-11H,1H2,(H,12,13);/q;;+2/p-2/t2*2-,3-,4+,5-;/m11./s1

>  <INCHI_KEY>  (1) 
WHMDKBIGKVEYHS-IYEMJOQQSA-L

>  <JCHEM_ACCEPTOR_COUNT>  (1) 
7

>  <JCHEM_ATOM_COUNT>  (1) 
49

>  <JCHEM_AVERAGE_POLARIZABILITY>  (1) 
16.622220252937513

>  <JCHEM_BIOAVAILABILITY>  (1) 
1

>  <JCHEM_DONOR_COUNT>  (1) 
5

>  <JCHEM_FORMAL_CHARGE>  (1) 
0

>  <JCHEM_GHOSE_FILTER>  (1) 
0

>  <JCHEM_IUPAC>  (1) 
zinc(2+) ion bis((2R,3S,4R,5R)-2,3,4,5,6-pentahydroxyhexanoate)

>  <JCHEM_LOGP>  (1) 
-3.4097443106666665

>  <JCHEM_MDDR_LIKE_RULE>  (1) 
0

>  <JCHEM_NUMBER_OF_RINGS>  (1) 
0

>  <JCHEM_PHYSIOLOGICAL_CHARGE>  (1) 
-1

>  <JCHEM_PKA>  (1) 
12.593710458724516

>  <JCHEM_PKA_STRONGEST_ACIDIC>  (1) 
3.3882055743218547

>  <JCHEM_PKA_STRONGEST_BASIC>  (1) 
-2.974220927705365

>  <JCHEM_POLAR_SURFACE_AREA>  (1) 
141.28

>  <JCHEM_REFRACTIVITY>  (1) 
49.10809999999999

>  <JCHEM_ROTATABLE_BOND_COUNT>  (1) 
10

>  <JCHEM_RULE_OF_FIVE>  (1) 
1

>  <JCHEM_TRADITIONAL_IUPAC>  (1) 
zinc(2+) ion bis(D-gluconate)

>  <JCHEM_VEBER_RULE>  (1) 
0

>  <MOLECULAR_WEIGHT>  (1) 
455.67

>  <PRODUCTS>  (1) 
Calcium - Magnesium - Zinc Tab; Calcium Magnesium Avec Vitamine D Et Zinc; Chelated Zinc Tab 25mg; Chelated Zinc Tab 50mg; Floriva; Nbb; Nbe; Zinc Gluconate Tab 10mg; Zinc Supplement Tab 20mg; Zinc Tab 50mg

>  <SMILES>  (1) 
[Zn++].[H][C@@](O)(CO)[C@@]([H])(O)[C@]([H])(O)[C@@]([H])(O)C([O-])=O.[H][C@@](O)(CO)[C@@]([H])(O)[C@]([H])(O)[C@@]([H])(O)C([O-])=O

$$$$
