
     RDKit          2D

 60 60  0  0  0  0  0  0  0  0999 V2000
    5.0013  -10.3125    0.0000 C   0  0  0  0  0  0  0  0  0  0  0  0
    5.7158   -9.9000    0.0000 C   0  0  0  0  0  0  0  0  0  0  0  0
    6.4302  -10.3125    0.0000 C   0  0  0  0  0  0  0  0  0  0  0  0
    7.1447   -9.9000    0.0000 C   0  0  0  0  0  0  0  0  0  0  0  0
    7.8592  -10.3125    0.0000 C   0  0  0  0  0  0  0  0  0  0  0  0
    8.5737   -9.9000    0.0000 C   0  0  0  0  0  0  0  0  0  0  0  0
    9.2881  -10.3125    0.0000 C   0  0  0  0  0  0  0  0  0  0  0  0
   10.0026   -9.9000    0.0000 C   0  0  0  0  0  0  0  0  0  0  0  0
   10.7171  -10.3125    0.0000 C   0  0  0  0  0  0  0  0  0  0  0  0
   11.4315   -9.9000    0.0000 C   0  0  0  0  0  0  0  0  0  0  0  0
   12.1460  -10.3125    0.0000 C   0  0  0  0  0  0  0  0  0  0  0  0
   12.8605   -9.9000    0.0000 C   0  0  0  0  0  0  0  0  0  0  0  0
   13.5749  -10.3125    0.0000 C   0  0  0  0  0  0  0  0  0  0  0  0
   14.2894   -9.9000    0.0000 C   0  0  0  0  0  0  0  0  0  0  0  0
   15.0039  -10.3125    0.0000 C   0  0  0  0  0  0  0  0  0  0  0  0
   15.7184   -9.9000    0.0000 C   0  0  0  0  0  0  0  0  0  0  0  0
   16.4328  -10.3125    0.0000 N   0  0  0  0  0  0  0  0  0  0  0  0
   17.1473   -9.9000    0.0000 C   0  0  0  0  0  0  0  0  0  0  0  0
   17.8618  -10.3125    0.0000 C   0  0  0  0  0  0  0  0  0  0  0  0
   17.8618  -11.1375    0.0000 C   0  0  0  0  0  0  0  0  0  0  0  0
   17.1473  -11.5500    0.0000 C   0  0  0  0  0  0  0  0  0  0  0  0
   16.4328  -11.1375    0.0000 C   0  0  0  0  0  0  0  0  0  0  0  0
    0.0000    0.0000    0.0000 H   0  0  0  0  0  0  0  0  0  0  0  0
    0.0000    0.0000    0.0000 H   0  0  0  0  0  0  0  0  0  0  0  0
    0.0000    0.0000    0.0000 H   0  0  0  0  0  0  0  0  0  0  0  0
    0.0000    0.0000    0.0000 H   0  0  0  0  0  0  0  0  0  0  0  0
    0.0000    0.0000    0.0000 H   0  0  0  0  0  0  0  0  0  0  0  0
    0.0000    0.0000    0.0000 H   0  0  0  0  0  0  0  0  0  0  0  0
    0.0000    0.0000    0.0000 H   0  0  0  0  0  0  0  0  0  0  0  0
    0.0000    0.0000    0.0000 H   0  0  0  0  0  0  0  0  0  0  0  0
    0.0000    0.0000    0.0000 H   0  0  0  0  0  0  0  0  0  0  0  0
    0.0000    0.0000    0.0000 H   0  0  0  0  0  0  0  0  0  0  0  0
    0.0000    0.0000    0.0000 H   0  0  0  0  0  0  0  0  0  0  0  0
    0.0000    0.0000    0.0000 H   0  0  0  0  0  0  0  0  0  0  0  0
    0.0000    0.0000    0.0000 H   0  0  0  0  0  0  0  0  0  0  0  0
    0.0000    0.0000    0.0000 H   0  0  0  0  0  0  0  0  0  0  0  0
    0.0000    0.0000    0.0000 H   0  0  0  0  0  0  0  0  0  0  0  0
    0.0000    0.0000    0.0000 H   0  0  0  0  0  0  0  0  0  0  0  0
    0.0000    0.0000    0.0000 H   0  0  0  0  0  0  0  0  0  0  0  0
    0.0000    0.0000    0.0000 H   0  0  0  0  0  0  0  0  0  0  0  0
    0.0000    0.0000    0.0000 H   0  0  0  0  0  0  0  0  0  0  0  0
    0.0000    0.0000    0.0000 H   0  0  0  0  0  0  0  0  0  0  0  0
    0.0000    0.0000    0.0000 H   0  0  0  0  0  0  0  0  0  0  0  0
    0.0000    0.0000    0.0000 H   0  0  0  0  0  0  0  0  0  0  0  0
    0.0000    0.0000    0.0000 H   0  0  0  0  0  0  0  0  0  0  0  0
    0.0000    0.0000    0.0000 H   0  0  0  0  0  0  0  0  0  0  0  0
    0.0000    0.0000    0.0000 H   0  0  0  0  0  0  0  0  0  0  0  0
    0.0000    0.0000    0.0000 H   0  0  0  0  0  0  0  0  0  0  0  0
    0.0000    0.0000    0.0000 H   0  0  0  0  0  0  0  0  0  0  0  0
    0.0000    0.0000    0.0000 H   0  0  0  0  0  0  0  0  0  0  0  0
    0.0000    0.0000    0.0000 H   0  0  0  0  0  0  0  0  0  0  0  0
    0.0000    0.0000    0.0000 H   0  0  0  0  0  0  0  0  0  0  0  0
    0.0000    0.0000    0.0000 H   0  0  0  0  0  0  0  0  0  0  0  0
    0.0000    0.0000    0.0000 H   0  0  0  0  0  0  0  0  0  0  0  0
    0.0000    0.0000    0.0000 H   0  0  0  0  0  0  0  0  0  0  0  0
    0.0000    0.0000    0.0000 H   0  0  0  0  0  0  0  0  0  0  0  0
    0.0000    0.0000    0.0000 H   0  0  0  0  0  0  0  0  0  0  0  0
    0.0000    0.0000    0.0000 H   0  0  0  0  0  0  0  0  0  0  0  0
    0.0000    0.0000    0.0000 H   0  0  0  0  0  0  0  0  0  0  0  0
    0.0000    0.0000    0.0000 H   0  0  0  0  0  0  0  0  0  0  0  0
  1  2  1  0
  2  3  1  0
  3  4  1  0
  4  5  1  0
  5  6  1  0
  6  7  1  0
  7  8  1  0
  8  9  1  0
  9 10  1  0
 10 11  1  0
 11 12  1  0
 12 13  1  0
 13 14  1  0
 14 15  1  0
 15 16  1  0
 16 17  1  0
 17 18  2  0
 18 19  1  0
 19 20  2  0
 20 21  1  0
 21 22  2  0
 17 22  1  0
  1 23  1  0
  1 24  1  0
  1 25  1  0
  2 26  1  0
  2 27  1  0
  3 28  1  0
  3 29  1  0
  4 30  1  0
  4 31  1  0
  5 32  1  0
  5 33  1  0
  6 34  1  0
  6 35  1  0
  7 36  1  0
  7 37  1  0
  8 38  1  0
  8 39  1  0
  9 40  1  0
  9 41  1  0
 10 42  1  0
 10 43  1  0
 11 44  1  0
 11 45  1  0
 12 46  1  0
 12 47  1  0
 13 48  1  0
 13 49  1  0
 14 50  1  0
 14 51  1  0
 15 52  1  0
 15 53  1  0
 16 54  1  0
 16 55  1  0
 18 56  1  0
 19 57  1  0
 20 58  1  0
 21 59  1  0
 22 60  1  0
M  CHG  1  17   1
M  END
>  <ALOGPS_LOGP>  (1) 
3.18

>  <ALOGPS_LOGS>  (1) 
-7.72

>  <ALOGPS_SOLUBILITY>  (1) 
6.53e-06 g/l

>  <DATABASE_ID>  (1) 
DB11073

>  <DATABASE_NAME>  (1) 
drugbank

>  <DRUGBANK_ID>  (1) 
DB11073

>  <DRUG_GROUPS>  (1) 
approved

>  <EXACT_MASS>  (1) 
304.299876648

>  <FORMULA>  (1) 
C21H38N

>  <GENERIC_NAME>  (1) 
Cetylpyridinium

>  <INCHI_IDENTIFIER>  (1) 
InChI=1S/C21H38N/c1-2-3-4-5-6-7-8-9-10-11-12-13-14-16-19-22-20-17-15-18-21-22/h15,17-18,20-21H,2-14,16,19H2,1H3/q+1

>  <INCHI_KEY>  (1) 
NEUSVAOJNUQRTM-UHFFFAOYSA-N

>  <JCHEM_ACCEPTOR_COUNT>  (1) 
0

>  <JCHEM_ATOM_COUNT>  (1) 
60

>  <JCHEM_AVERAGE_POLARIZABILITY>  (1) 
42.21159267197228

>  <JCHEM_BIOAVAILABILITY>  (1) 
1

>  <JCHEM_DONOR_COUNT>  (1) 
0

>  <JCHEM_FORMAL_CHARGE>  (1) 
1

>  <JCHEM_GHOSE_FILTER>  (1) 
1

>  <JCHEM_IUPAC>  (1) 
1-hexadecylpyridin-1-ium

>  <JCHEM_LOGP>  (1) 
3.4709280238615885

>  <JCHEM_MDDR_LIKE_RULE>  (1) 
0

>  <JCHEM_NUMBER_OF_RINGS>  (1) 
1

>  <JCHEM_PHYSIOLOGICAL_CHARGE>  (1) 
1

>  <JCHEM_POLAR_SURFACE_AREA>  (1) 
3.88

>  <JCHEM_REFRACTIVITY>  (1) 
99.1421

>  <JCHEM_ROTATABLE_BOND_COUNT>  (1) 
15

>  <JCHEM_RULE_OF_FIVE>  (1) 
1

>  <JCHEM_TRADITIONAL_IUPAC>  (1) 
cetylpyridinium

>  <JCHEM_VEBER_RULE>  (1) 
0

>  <MOLECULAR_WEIGHT>  (1) 
304.541

>  <PRODUCTS>  (1) 
ACT Advanced Care Plaque Guard Antigingivitis Antiplaque Clean Mint; ACT Advanced Care Plaque Guard Antigingivitis Antiplaque Frosted Mint; Actisep; Advanced Guard; Alcohol Free; Alcohol Free Antiseptic; Alcohol Free Antiseptic Oral; Antibiotic Lozenges; Antiplaque solution; Antiseptic; Antiseptic Night Rinse; Antiseptic Oral Rinse; Antiseptic Oral Rinse With Cpc; Antispetic; Aurora Alcohol Free Clean Mint; Balminil Loz; Beyond Antiseptic Mouthwash; BreathAway Mouth Rinse Cinnamon; BreathAway Mouth Rinse Fresh Mint; BreathRx with Zytex; CVS Antiseptic; Cepacol Antibacterial; Cepacol Antiseptic Lozenges; Cepacol Cherry Lozenges 1.4mg; Cepacol Citrus Extra Strength Lozenges; Cepacol Extra Strength Lozenge; Cepacol Extra Strength Orange Citrus Lozenge; Cepacol Honey Lemon Lozenges 1.4mg; Cepacol Mouthwash With Fluoride; Cepacol Mouthwash/gargle; Cepacol Peppermint Mouthwash With Fluoride; Cepacol Sore Throat Extra Strength Sucrose-free Lozenge (cherry Flavour); Cetylpyridinium Chloride Antiseptic Oral Rinse 0.07 % W/w; CleanZing; Colgate Total; Colgate Total 12 Hr Pro-Shield Spearmint Surge; Colgate Total 12Hr Pro-Shield Peppermint Blast; Colgate Total 12h Pro-shield; Colgate Total Advanced Gum Health Mouthwash; Colgate Total Advanced Pro-Shield Peppermint Blast; Colgate Total Advanced Pro-Shield Spearmint Surge; Colgate Total Advanced Pro-Shield Wintermint Rush; Colgate Total Freshmint; Colgate Total Gentle Care Softmint; Colgate Total Peppermint; Colgate Total Whitening Sparklemint; Corinz; Crest Pro-Health; Crest Pro-Health Clinical; Crest Pro-Health For Life; Crest Pro-Health Multi-Protection Refreshing Clean Mint; Crest Pro-health Multi Protection; Crest Pro-health for Life Multi-protection; Crest Scope; Daily Oral Cleansing Kit Petite Size with Antiseptic Oral Rinse; Discount Drug Mart Mint Mouthwash; E-zen Gargle; Emerald Mint Health; Emercol Loz; Emercreme No4 Ont Efa; Emereze Plus Loz 1.34mg; Equaline Multi-Action Antiseptic; Exoden Powder; Extra Strength Cepacol Sore Throat; Fluoride Mouthwash; G.U.m; Green Antiseptic Mwh & Gargle; Health; Hyvee Pro Clean Blue Mint; Kank-A; Kimvent Oral Care Toothbrush pack; Lander Orl Hygienic Mwh and Gargle; Laryngets Loz; Maximuim Strength; Mint; Mint Alcohol Free; Mouth Fresh; Mouth Rinse 0.05%; Mouthwash; Mouthwash 0.05%; Mouthwash and Gargle; Multi-Action Antiseptic; Orajle Anti-Bacterial Rinse for Bleeding Gums; Oral B Anti-bacterial With Fluoride; Oral Cleansing and Suctioning System, Q2; Oral Defense; Oral Plan Antibacterial Mouthrinse With Fluoride; Oral-B Anti-Bacterial; Oral-B Anti-bacterial With Fluoride; Oral-B Antibacterial With Fluoride Alc.free; Orasep; Pastilles Antiseptiques Jener; Pastilles Merol; Pearlie White; Pulmosirum Pastille; QCare; QCare Oral Cleansing and Suctioning System Q2; QCare Oral Cleansing and Suctioning System Q4 Antiseptic Oral Rinse; QCare Oral Cleansing and Suctioning System compatible with 0.12% Chlorhexidine Gluconate (CHG) Oral Rinse; QCare Oral Cleansing and Suctioning System, Q2; QCare Oral Cleansing and Suctioning System, Q4; QCare Oral Cleansing and Suctioning System, Q8; QCare Oral Cleansing and Suctioning System, q2; QCare Petite Size Oral Cleansing and Suctioning System; QCare Rx Oral Cleansing and Suctioning System; QCare Rx Petite Oral Cleansing and Suctioning System; Qcare Oral Cleansing and Suctioning System; Quality Choice Mint; Rince Bouche Antiseptique; Roccos Old School Peircing Armor; Single Use System with Antiseptic Oral Rinse and Mouth Moisturizer; Smart Sense Alcohol Free; SmartMouth Advance Clinical Formula Cinnamon; SmartMouth Advance Clinical Formula Mint; SmartMouth Gum and Plaque Formula; Suction Swab System; Suction Toothbrush with Antiseptic Oral Rinse; Suction Toothbrushes; Throat Lozenges; Throat Lozenges 1.5mg; Total Advanced Health Fresh Mint; Xylocaine Oral Spray; Zestymint Antiseptic

>  <SALTS>  (1) 
Cetylpyridinium chloride

>  <SECONDARY_ACCESSION_NUMBERS>  (1) 
DB05748

>  <SMILES>  (1) 
CCCCCCCCCCCCCCCC[N+]1=CC=CC=C1

$$$$
