
     RDKit          2D

  2  0  0  0  0  0  0  0  0  0999 V2000
    0.8250    0.0000    0.0000 I   0  0  0  0  0  0  0  0  0  0  0  0
    0.0000    0.0000    0.0000 Na  0  0  0  0  0  0  0  0  0  0  0  0
M  CHG  2   1  -1   2   1
M  END
>  <DATABASE_ID>  (1) 
DB11119

>  <DATABASE_NAME>  (1) 
drugbank

>  <DRUGBANK_ID>  (1) 
DB11119

>  <DRUG_GROUPS>  (1) 
approved

>  <EXACT_MASS>  (1) 
149.89424

>  <FORMULA>  (1) 
INa

>  <GENERIC_NAME>  (1) 
Sodium iodide

>  <INCHI_IDENTIFIER>  (1) 
InChI=1S/HI.Na/h1H;/q;+1/p-1

>  <INCHI_KEY>  (1) 
FVAUCKIRQBBSSJ-UHFFFAOYSA-M

>  <JCHEM_ACCEPTOR_COUNT>  (1) 
0

>  <JCHEM_ATOM_COUNT>  (1) 
2

>  <JCHEM_AVERAGE_POLARIZABILITY>  (1) 
5.07487188

>  <JCHEM_BIOAVAILABILITY>  (1) 
1

>  <JCHEM_DONOR_COUNT>  (1) 
0

>  <JCHEM_FORMAL_CHARGE>  (1) 
0

>  <JCHEM_GHOSE_FILTER>  (1) 
0

>  <JCHEM_IUPAC>  (1) 
sodium iodide

>  <JCHEM_LOGP>  (1) 
1.02055578

>  <JCHEM_MDDR_LIKE_RULE>  (1) 
0

>  <JCHEM_NUMBER_OF_RINGS>  (1) 
0

>  <JCHEM_PHYSIOLOGICAL_CHARGE>  (1) 
-1

>  <JCHEM_PKA_STRONGEST_ACIDIC>  (1) 
-8.999999999999996

>  <JCHEM_POLAR_SURFACE_AREA>  (1) 
0.0

>  <JCHEM_REFRACTIVITY>  (1) 
13.9462

>  <JCHEM_ROTATABLE_BOND_COUNT>  (1) 
0

>  <JCHEM_RULE_OF_FIVE>  (1) 
1

>  <JCHEM_TRADITIONAL_IUPAC>  (1) 
sodium iodide

>  <JCHEM_VEBER_RULE>  (1) 
1

>  <MOLECULAR_WEIGHT>  (1) 
149.8942

>  <PRODUCTS>  (1) 
CVS Iodine; DDM Iodine Tincture Mild; De La Cruz Tincture of Iodine; GNP Idoinde Tincture 2% Mild; Harris Teeter Iodine Tincture Mild; Health Mart Iodine Tincture Mild; Iodine; Iodine Tincture; Iodine Tincture Mild; Iodopen Sodium Iodide; LEADER Mild Iodine; M.T.E.-6 Concentrated; Micro I; Micro Plus 6 (regular); Premier Value Iodine Tincture Mild; QC Iodine Tincture Mild; Quality Choice Iodine Tincture Mild; Sclerodine 6 Injection; Sodium Iodide Inj 100mg/ml; Sunmark Iodine

>  <SMILES>  (1) 
[Na+].[I-]

$$$$
