
     RDKit          2D

104110  0  0  1  0  0  0  0  0999 V2000
    8.2225   -6.5717    0.0000 C   0  0  0  0  0  0  0  0  0  0  0  0
    3.5954   -5.0748    0.0000 C   0  0  0  0  0  0  0  0  0  0  0  0
    2.9555   -4.0992    0.0000 C   0  0  0  0  0  0  0  0  0  0  0  0
    4.5710   -4.4350    0.0000 C   0  0  0  0  0  0  0  0  0  0  0  0
   11.4300   -2.4900    0.0000 C   0  0  0  0  0  0  0  0  0  0  0  0
    7.5882   -6.0441    0.0000 C   0  0  0  0  0  0  0  0  0  0  0  0
    5.3861    0.0301    0.0000 C   0  0  0  0  0  0  0  0  0  0  0  0
    4.6027   -0.2284    0.0000 C   0  0  0  0  0  0  0  0  0  0  0  0
    6.0017   -0.5192    0.0000 C   0  0  0  0  0  0  0  0  0  0  0  0
    4.4348   -1.0361    0.0000 C   0  0  0  0  0  0  0  0  0  0  0  0
    6.7852   -0.2607    0.0000 C   0  0  0  0  0  0  0  0  0  0  0  0
   10.1988   -1.3915    0.0000 C   0  0  0  0  0  0  0  0  0  0  0  0
    3.3479   -8.2311    0.0000 C   0  0  0  0  0  0  0  0  0  0  0  0
    4.1701   -8.2994    0.0000 C   0  0  0  0  0  0  0  0  0  0  0  0
    9.5833   -0.8423    0.0000 C   0  0  0  0  0  0  0  0  0  0  0  0
    2.8679   -1.5531    0.0000 C   0  0  0  0  0  0  0  0  0  0  0  0
    9.2475   -2.4577    0.0000 C   0  0  0  0  0  0  0  0  0  0  0  0
    6.6972   -3.3965    0.0000 C   0  0  0  0  0  0  0  0  0  0  0  0
    6.2866   -6.9639    0.0000 C   0  0  0  0  0  0  0  0  0  0  0  0
    5.4980   -2.9424    0.0000 C   0  0  0  0  0  0  0  0  0  0  0  0
    3.6513   -1.2946    0.0000 C   0  0  0  0  0  0  0  0  0  0  0  0
    6.8142   -6.3296    0.0000 C   0  0  0  0  0  0  0  0  0  0  0  0
   10.0309   -2.1993    0.0000 C   0  0  0  0  0  0  0  0  0  0  0  0
    6.2815   -2.6839    0.0000 C   0  0  0  0  0  0  0  0  0  0  0  0
    3.8182   -7.5532    0.0000 C   0  0  0  0  0  0  0  0  0  0  0  0
    8.7998   -1.1007    0.0000 C   0  0  0  0  0  0  0  0  0  0  0  0
    7.4007   -0.8100    0.0000 C   0  0  0  0  0  0  0  0  0  0  0  0
    8.6319   -1.9085    0.0000 C   0  0  0  0  0  0  0  0  0  0  0  0
    6.1480   -4.0121    0.0000 C   0  0  0  0  0  0  0  0  0  0  0  0
    3.4834   -2.1023    0.0000 C   0  0  0  0  0  0  0  0  0  0  0  0
    3.9311   -3.4593    0.0000 C   0  0  0  0  0  0  0  0  0  0  0  0
    6.3649   -4.8080    0.0000 C   0  0  0  0  0  0  0  0  0  0  0  0
    7.2329   -1.6177    0.0000 C   0  0  0  0  0  0  0  0  0  0  0  0
    4.5467   -4.0086    0.0000 C   0  0  0  0  0  0  0  0  0  0  0  0
    5.1789   -6.1215    0.0000 C   0  0  0  0  0  0  0  0  0  0  0  0
    2.5321   -3.1685    0.0000 C   0  0  0  0  0  0  0  0  0  0  0  0
    3.7632   -4.2671    0.0000 C   0  0  0  0  0  0  0  0  0  0  0  0
    6.0011   -6.1899    0.0000 C   0  0  0  0  0  0  0  0  0  0  0  0
    8.1842   -0.5515    0.0000 N   0  0  0  0  0  0  0  0  0  0  0  0
    7.8484   -2.1670    0.0000 N   0  0  0  0  0  0  0  0  0  0  0  0
    3.1477   -3.7178    0.0000 N   0  0  0  0  0  0  0  0  0  0  0  0
    5.7841   -5.3939    0.0000 N   0  0  0  0  0  0  0  0  0  0  0  0
    4.7087   -6.7994    0.0000 N   0  0  0  0  0  0  0  0  0  0  0  0
    5.3302   -3.7501    0.0000 N   0  0  0  0  0  0  0  0  0  0  0  0
    7.1628   -5.0181    0.0000 O   0  0  0  0  0  0  0  0  0  0  0  0
    4.8857   -4.7607    0.0000 O   0  0  0  0  0  0  0  0  0  0  0  0
    4.8270   -5.3754    0.0000 O   0  0  0  0  0  0  0  0  0  0  0  0
    1.7486   -3.4270    0.0000 O   0  0  0  0  0  0  0  0  0  0  0  0
    3.0643   -6.6627    0.0000 O   0  0  0  0  0  0  0  0  0  0  0  0
    3.9548   -5.9089    0.0000 O   0  0  0  0  0  0  0  0  0  0  0  0
   10.6465   -2.7485    0.0000 O   0  0  0  0  0  0  0  0  0  0  0  0
    6.4494   -1.8762    0.0000 O   0  0  0  0  0  0  0  0  0  0  0  0
    2.7000   -2.3608    0.0000 O   0  0  0  0  0  0  0  0  0  0  0  0
    3.8865   -6.7310    0.0000 S   0  0  0  0  0  0  0  0  0  0  0  0
    0.0000    0.0000    0.0000 H   0  0  0  0  0  0  0  0  0  0  0  0
    0.0000    0.0000    0.0000 H   0  0  0  0  0  0  0  0  0  0  0  0
    0.0000    0.0000    0.0000 H   0  0  0  0  0  0  0  0  0  0  0  0
    0.0000    0.0000    0.0000 H   0  0  0  0  0  0  0  0  0  0  0  0
    0.0000    0.0000    0.0000 H   0  0  0  0  0  0  0  0  0  0  0  0
    0.0000    0.0000    0.0000 H   0  0  0  0  0  0  0  0  0  0  0  0
    0.0000    0.0000    0.0000 H   0  0  0  0  0  0  0  0  0  0  0  0
    0.0000    0.0000    0.0000 H   0  0  0  0  0  0  0  0  0  0  0  0
    0.0000    0.0000    0.0000 H   0  0  0  0  0  0  0  0  0  0  0  0
    0.0000    0.0000    0.0000 H   0  0  0  0  0  0  0  0  0  0  0  0
    0.0000    0.0000    0.0000 H   0  0  0  0  0  0  0  0  0  0  0  0
    0.0000    0.0000    0.0000 H   0  0  0  0  0  0  0  0  0  0  0  0
    0.0000    0.0000    0.0000 H   0  0  0  0  0  0  0  0  0  0  0  0
    0.0000    0.0000    0.0000 H   0  0  0  0  0  0  0  0  0  0  0  0
    0.0000    0.0000    0.0000 H   0  0  0  0  0  0  0  0  0  0  0  0
    0.0000    0.0000    0.0000 H   0  0  0  0  0  0  0  0  0  0  0  0
    0.0000    0.0000    0.0000 H   0  0  0  0  0  0  0  0  0  0  0  0
    0.0000    0.0000    0.0000 H   0  0  0  0  0  0  0  0  0  0  0  0
    0.0000    0.0000    0.0000 H   0  0  0  0  0  0  0  0  0  0  0  0
    0.0000    0.0000    0.0000 H   0  0  0  0  0  0  0  0  0  0  0  0
    0.0000    0.0000    0.0000 H   0  0  0  0  0  0  0  0  0  0  0  0
    0.0000    0.0000    0.0000 H   0  0  0  0  0  0  0  0  0  0  0  0
    0.0000    0.0000    0.0000 H   0  0  0  0  0  0  0  0  0  0  0  0
    0.0000    0.0000    0.0000 H   0  0  0  0  0  0  0  0  0  0  0  0
    0.0000    0.0000    0.0000 H   0  0  0  0  0  0  0  0  0  0  0  0
    0.0000    0.0000    0.0000 H   0  0  0  0  0  0  0  0  0  0  0  0
    0.0000    0.0000    0.0000 H   0  0  0  0  0  0  0  0  0  0  0  0
    0.0000    0.0000    0.0000 H   0  0  0  0  0  0  0  0  0  0  0  0
    0.0000    0.0000    0.0000 H   0  0  0  0  0  0  0  0  0  0  0  0
    0.0000    0.0000    0.0000 H   0  0  0  0  0  0  0  0  0  0  0  0
    0.0000    0.0000    0.0000 H   0  0  0  0  0  0  0  0  0  0  0  0
    0.0000    0.0000    0.0000 H   0  0  0  0  0  0  0  0  0  0  0  0
    0.0000    0.0000    0.0000 H   0  0  0  0  0  0  0  0  0  0  0  0
    0.0000    0.0000    0.0000 H   0  0  0  0  0  0  0  0  0  0  0  0
    0.0000    0.0000    0.0000 H   0  0  0  0  0  0  0  0  0  0  0  0
    0.0000    0.0000    0.0000 H   0  0  0  0  0  0  0  0  0  0  0  0
    0.0000    0.0000    0.0000 H   0  0  0  0  0  0  0  0  0  0  0  0
    0.0000    0.0000    0.0000 H   0  0  0  0  0  0  0  0  0  0  0  0
    0.0000    0.0000    0.0000 H   0  0  0  0  0  0  0  0  0  0  0  0
    0.0000    0.0000    0.0000 H   0  0  0  0  0  0  0  0  0  0  0  0
    0.0000    0.0000    0.0000 H   0  0  0  0  0  0  0  0  0  0  0  0
    0.0000    0.0000    0.0000 H   0  0  0  0  0  0  0  0  0  0  0  0
    0.0000    0.0000    0.0000 H   0  0  0  0  0  0  0  0  0  0  0  0
    0.0000    0.0000    0.0000 H   0  0  0  0  0  0  0  0  0  0  0  0
    0.0000    0.0000    0.0000 H   0  0  0  0  0  0  0  0  0  0  0  0
    0.0000    0.0000    0.0000 H   0  0  0  0  0  0  0  0  0  0  0  0
    0.0000    0.0000    0.0000 H   0  0  0  0  0  0  0  0  0  0  0  0
    0.0000    0.0000    0.0000 H   0  0  0  0  0  0  0  0  0  0  0  0
    0.0000    0.0000    0.0000 H   0  0  0  0  0  0  0  0  0  0  0  0
    0.0000    0.0000    0.0000 H   0  0  0  0  0  0  0  0  0  0  0  0
  6  1  2  3
  8  7  1  0
  9  7  1  0
 10  8  1  0
 11  9  1  0
 14 13  1  0
 15 12  2  0
 21 10  1  0
 21 16  1  0
 22  6  1  6
 22 19  1  0
 23 12  1  0
 23 17  2  0
 24 18  1  0
 24 20  1  0
 25 13  1  0
 25 14  1  0
 26 15  1  0
 27 11  1  0
 28 17  1  0
 28 26  1  0
 29 18  1  0
 30 16  1  0
 30 21  1  0
 29 32  1  6
 33 27  2  0
 34 31  1  0
 37  2  1  0
 37  3  1  0
 37  4  1  0
 31 37  1  1
 38 19  1  0
 38 22  1  0
 38 35  1  6
 39 26  2  0
 39 27  1  0
 40 28  2  0
 40 33  1  0
 41 31  1  0
 41 36  2  0
 42 32  2  3
 38 42  1  0
 43 35  2  3
 44 20  1  0
 44 29  1  0
 44 34  1  0
 32 45  1  0
 46 34  2  0
 47 35  1  0
 36 48  1  0
 51  5  1  0
 51 23  1  0
 52 24  1  0
 52 33  1  0
 53 30  1  0
 53 36  1  0
 54 25  1  0
 43 54  1  0
 54 49  2  0
 54 50  2  0
  1 55  1  0
  1 56  1  0
  2 57  1  0
  2 58  1  0
  2 59  1  0
  3 60  1  0
  3 61  1  0
  3 62  1  0
  4 63  1  0
  4 64  1  0
  4 65  1  0
  5 66  1  0
  5 67  1  0
  5 68  1  0
  6 69  1  0
  7 70  1  0
  7 71  1  0
  8 72  1  0
  8 73  1  0
  9 74  1  0
  9 75  1  0
 10 76  1  0
 10 77  1  0
 11 78  1  0
 11 79  1  0
 12 80  1  0
 13 81  1  0
 13 82  1  0
 14 83  1  0
 14 84  1  0
 15 85  1  0
 16 86  1  0
 16 87  1  0
 17 88  1  0
 18 89  1  0
 18 90  1  0
 19 91  1  0
 19 92  1  0
 20 93  1  0
 20 94  1  0
 21 95  1  6
 22 96  1  0
 24 97  1  1
 25 98  1  0
 29 99  1  0
 30100  1  1
 31101  1  0
 45102  1  0
 47103  1  0
 48104  1  0
M  END
>  <ALOGPS_LOGP>  (1) 
3.14

>  <ALOGPS_LOGS>  (1) 
-4.90

>  <ALOGPS_SOLUBILITY>  (1) 
9.70e-03 g/l

>  <DATABASE_ID>  (1) 
DB11575

>  <DATABASE_NAME>  (1) 
drugbank

>  <DRUGBANK_ID>  (1) 
DB11575

>  <DRUG_GROUPS>  (1) 
approved

>  <EXACT_MASS>  (1) 
766.335997918

>  <FORMULA>  (1) 
C38H50N6O9S

>  <GENERIC_NAME>  (1) 
Grazoprevir

>  <INCHI_IDENTIFIER>  (1) 
InChI=1S/C38H50N6O9S/c1-6-22-19-38(22,35(47)43-54(49,50)25-13-14-25)42-32(45)29-18-24-20-44(29)34(46)31(37(2,3)4)41-36(48)53-30-16-21(30)10-8-7-9-11-27-33(52-24)40-28-17-23(51-5)12-15-26(28)39-27/h6,12,15,17,21-22,24-25,29-31H,1,7-11,13-14,16,18-20H2,2-5H3,(H,41,48)(H,42,45)(H,43,47)/t21-,22-,24-,29+,30-,31-,38-/m1/s1

>  <INCHI_KEY>  (1) 
OBMNJSNZOWALQB-NCQNOWPTSA-N

>  <JCHEM_ACCEPTOR_COUNT>  (1) 
14

>  <JCHEM_AVERAGE_POLARIZABILITY>  (1) 
81.09425029760075

>  <JCHEM_BIOAVAILABILITY>  (1) 
0

>  <JCHEM_DONOR_COUNT>  (1) 
3

>  <JCHEM_FORMAL_CHARGE>  (1) 
0

>  <JCHEM_GHOSE_FILTER>  (1) 
0

>  <JCHEM_IUPAC>  (1) 
(1R,18R,20R,24S,27S)-24-tert-butyl-N-[(1R,2S)-1-[(cyclopropanesulfonyl)-C-hydroxycarbonimidoyl]-2-ethenylcyclopropyl]-22-hydroxy-7-methoxy-25-oxo-2,21-dioxa-4,11,23,26-tetraazapentacyclo[24.2.1.0³,¹².0⁵,¹⁰.0¹⁸,²⁰]nonacosa-3(12),4,6,8,10,22-hexaene-27-carboximidic acid

>  <JCHEM_LOGP>  (1) 
5.412268525333333

>  <JCHEM_MDDR_LIKE_RULE>  (1) 
1

>  <JCHEM_NUMBER_OF_RINGS>  (1) 
7

>  <JCHEM_PHYSIOLOGICAL_CHARGE>  (1) 
0

>  <JCHEM_PKA>  (1) 
5.967368513801209

>  <JCHEM_PKA_STRONGEST_ACIDIC>  (1) 
5.310030848569936

>  <JCHEM_PKA_STRONGEST_BASIC>  (1) 
1.8116808599532863

>  <JCHEM_POLAR_SURFACE_AREA>  (1) 
205.68999999999997

>  <JCHEM_REFRACTIVITY>  (1) 
195.24590000000003

>  <JCHEM_ROTATABLE_BOND_COUNT>  (1) 
7

>  <JCHEM_RULE_OF_FIVE>  (1) 
0

>  <JCHEM_TRADITIONAL_IUPAC>  (1) 
(1R,18R,20R,24S,27S)-24-tert-butyl-N-[(1R,2S)-1-(cyclopropanesulfonyl-C-hydroxycarbonimidoyl)-2-ethenylcyclopropyl]-22-hydroxy-7-methoxy-25-oxo-2,21-dioxa-4,11,23,26-tetraazapentacyclo[24.2.1.0³,¹².0⁵,¹⁰.0¹⁸,²⁰]nonacosa-3(12),4,6,8,10,22-hexaene-27-carboximidic acid

>  <JCHEM_VEBER_RULE>  (1) 
0

>  <MOLECULAR_WEIGHT>  (1) 
766.903

>  <PRODUCTS>  (1) 
Zepatier

>  <SALTS>  (1) 
Grazoprevir monohydrate

>  <SMILES>  (1) 
[H][C@@]12C[C@@]1([H])OC(O)=N[C@]([H])(C(=O)N1C[C@@]([H])(C[C@@]1([H])C(O)=N[C@@]1(C[C@@]1([H])C=C)C(O)=NS(=O)(=O)C1CC1)OC1=C(CCCCC2)N=C2C=CC(OC)=CC2=N1)C(C)(C)C

>  <SYNONYMS>  (1) 
(1aR,5S,8S,10R,22aR)-5-tert-butyl-N-{(1R,2S)-1-[(cyclopropanesulfonyl)carbamoyl]-2-ethenylcyclopropyl}-14-methoxy-3,6-dioxo-1,1a,3,4,5,6,9,10,18,19,20,21,22,22a-tetradecahydro-8H-7,10-methanocyclopropa[18,19][1,10,3,6]dioxadiazacyclononadecino[11,12-b]quinoxaline-8-carboxamide; Grazoprevir; Grazoprevir anhydrous

$$$$
