
     RDKit          2D

  5  4  0  0  0  0  0  0  0  0999 V2000
    2.0625   -0.7145    0.0000 O   0  0  0  0  0  0  0  0  0  0  0  0
    1.2375   -0.7145    0.0000 N   0  0  0  0  0  0  0  0  0  0  0  0
    0.8250   -1.4289    0.0000 O   0  0  0  0  0  0  0  0  0  0  0  0
    0.8250    0.0000    0.0000 O   0  0  0  0  0  0  0  0  0  0  0  0
    0.0000    0.0000    0.0000 Ag  0  0  0  0  0  0  0  0  0  0  0  0
  1  2  1  0
  2  3  2  0
  2  4  1  0
  4  5  1  0
M  CHG  2   1  -1   2   1
M  END
>  <DATABASE_ID>  (1) 
DB11080

>  <DATABASE_NAME>  (1) 
drugbank

>  <DRUGBANK_ID>  (1) 
DB11080

>  <DRUG_GROUPS>  (1) 
approved

>  <EXACT_MASS>  (1) 
168.892910891

>  <FORMULA>  (1) 
AgNO3

>  <GENERIC_NAME>  (1) 
Silver nitrate

>  <INCHI_IDENTIFIER>  (1) 
InChI=1S/Ag.NO3/c;2-1(3)4/q+1;-1

>  <INCHI_KEY>  (1) 
SQGYOTSLMSWVJD-UHFFFAOYSA-N

>  <JCHEM_ACCEPTOR_COUNT>  (1) 
3

>  <JCHEM_AVERAGE_POLARIZABILITY>  (1) 
5.12195671292392

>  <JCHEM_BIOAVAILABILITY>  (1) 
1

>  <JCHEM_DONOR_COUNT>  (1) 
0

>  <JCHEM_FORMAL_CHARGE>  (1) 
0

>  <JCHEM_GHOSE_FILTER>  (1) 
0

>  <JCHEM_IUPAC>  (1) 
argentio nitrate

>  <JCHEM_LOGP>  (1) 
0.5491999999999999

>  <JCHEM_MDDR_LIKE_RULE>  (1) 
0

>  <JCHEM_NUMBER_OF_RINGS>  (1) 
0

>  <JCHEM_PHYSIOLOGICAL_CHARGE>  (1) 
0

>  <JCHEM_PKA_STRONGEST_BASIC>  (1) 
-2.862673544654897

>  <JCHEM_POLAR_SURFACE_AREA>  (1) 
55.05

>  <JCHEM_REFRACTIVITY>  (1) 
9.258600000000001

>  <JCHEM_ROTATABLE_BOND_COUNT>  (1) 
1

>  <JCHEM_RULE_OF_FIVE>  (1) 
1

>  <JCHEM_TRADITIONAL_IUPAC>  (1) 
argentio nitrate

>  <JCHEM_VEBER_RULE>  (1) 
0

>  <MOLECULAR_WEIGHT>  (1) 
169.8731

>  <PRODUCTS>  (1) 
Grafco Applicator 15 Cm; Grafco Applicator 30 Cm; Grafco Applicator 45 Cm; Repara Silver Nitrate Applicators; Silver Nitrate; Silver Nitrate Applicator; Silver Nitrate Applicators; Styptstix; Vet one

>  <SMILES>  (1) 
[O-][N+](=O)O[Ag]

$$$$
