
     RDKit          2D

  1  0  0  0  0  0  0  0  0  0999 V2000
    0.0000    0.0000    0.0000 Mo  0  0  0  0  0  0  0  0  0  0  0  0
M  END
>  <DATABASE_ID>  (1) 
DB11137

>  <DATABASE_NAME>  (1) 
drugbank

>  <DRUGBANK_ID>  (1) 
DB11137

>  <DRUG_GROUPS>  (1) 
approved

>  <EXACT_MASS>  (1) 
97.905407846

>  <FORMULA>  (1) 
Mo

>  <GENERIC_NAME>  (1) 
Molybdenum

>  <INCHI_IDENTIFIER>  (1) 
InChI=1S/Mo

>  <INCHI_KEY>  (1) 
ZOKXTWBITQBERF-UHFFFAOYSA-N

>  <JCHEM_ACCEPTOR_COUNT>  (1) 
0

>  <JCHEM_AVERAGE_POLARIZABILITY>  (1) 
1.7784

>  <JCHEM_BIOAVAILABILITY>  (1) 
1

>  <JCHEM_DONOR_COUNT>  (1) 
0

>  <JCHEM_FORMAL_CHARGE>  (1) 
0

>  <JCHEM_GHOSE_FILTER>  (1) 
0

>  <JCHEM_IUPAC>  (1) 
molybdenum

>  <JCHEM_LOGP>  (1) 
0

>  <JCHEM_MDDR_LIKE_RULE>  (1) 
0

>  <JCHEM_NUMBER_OF_RINGS>  (1) 
0

>  <JCHEM_PHYSIOLOGICAL_CHARGE>  (1) 
0

>  <JCHEM_POLAR_SURFACE_AREA>  (1) 
0

>  <JCHEM_REFRACTIVITY>  (1) 
0

>  <JCHEM_ROTATABLE_BOND_COUNT>  (1) 
0

>  <JCHEM_RULE_OF_FIVE>  (1) 
1

>  <JCHEM_TRADITIONAL_IUPAC>  (1) 
molybdenum

>  <JCHEM_VEBER_RULE>  (1) 
1

>  <MOLECULAR_WEIGHT>  (1) 
95.94

>  <PRODUCTS>  (1) 
Formula Im-vitamins and Minerals Tab; Iron 25mg With Vit B-cmplx, Vit C, Cu & Mo; Mineralex; Multi Vitamin - Mineral; Multi Vitamins & Minerals; Multi-vitamins With Minerals; Onccor; One A Day Advance Adults; One A Day Advance Adults 50+; Spectrum 2 Cap; Strovite Forte Caplet; Usana Multimineral Tablets; Usana Multimineral Tablets - Tab; Vitalife  -  Capsule

>  <SMILES>  (1) 
[Mo]

$$$$
