
     RDKit          2D

 63 67  0  0  1  0  0  0  0  0999 V2000
    0.1715   -0.8070    0.0000 C   0  0  0  0  0  0  0  0  0  0  0  0
    0.7846   -0.2549    0.0000 C   0  0  0  0  0  0  0  0  0  0  0  0
    1.2695    0.4125    0.0000 C   0  0  0  0  0  0  0  0  0  0  0  0
    2.0542    0.1576    0.0000 N   0  0  0  0  0  0  0  0  0  0  0  0
    2.8388    0.4125    0.0000 C   0  0  0  0  0  0  0  0  0  0  0  0
    3.3237   -0.2549    0.0000 C   0  0  0  0  0  0  0  0  0  0  0  0
    2.8388   -0.9224    0.0000 N   0  0  0  0  0  0  0  0  0  0  0  0
    2.0542   -0.6674    0.0000 C   0  0  0  0  0  0  0  0  0  0  0  0
    1.2695   -0.9224    0.0000 O   0  0  0  0  0  0  0  0  0  0  0  0
    4.1487   -0.2549    0.0000 N   0  0  0  0  0  0  0  0  0  0  0  0
    4.5612   -0.9694    0.0000 O   0  0  0  0  0  0  0  0  0  0  0  0
    4.5612    0.4595    0.0000 O   0  0  0  0  0  0  0  0  0  0  0  0
    0.1715    0.2971    0.0000 C   0  0  0  0  0  0  0  0  0  0  0  0
   -0.6131    0.0422    0.0000 O   0  0  0  0  0  0  0  0  0  0  0  0
   -1.2262    0.5942    0.0000 C   0  0  0  0  0  0  0  0  0  0  0  0
   -2.0108    0.3392    0.0000 C   0  0  0  0  0  0  0  0  0  0  0  0
   -2.6239    0.8913    0.0000 C   0  0  0  0  0  0  0  0  0  0  0  0
   -2.4524    1.6983    0.0000 C   0  0  0  0  0  0  0  0  0  0  0  0
   -1.6678    1.9532    0.0000 C   0  0  0  0  0  0  0  0  0  0  0  0
   -1.0547    1.4012    0.0000 C   0  0  0  0  0  0  0  0  0  0  0  0
   -3.0655    2.2503    0.0000 N   0  0  0  0  0  0  0  0  0  0  0  0
   -3.8501    1.9953    0.0000 C   0  0  0  0  0  0  0  0  0  0  0  0
   -4.4632    2.5474    0.0000 C   0  0  0  0  0  0  0  0  0  0  0  0
   -4.2917    3.3544    0.0000 C   0  0  0  0  0  0  0  0  0  0  0  0
   -3.5070    3.6093    0.0000 C   0  0  0  0  0  0  0  0  0  0  0  0
   -2.8939    3.0573    0.0000 C   0  0  0  0  0  0  0  0  0  0  0  0
   -4.9048    3.9064    0.0000 O   0  0  0  0  0  0  0  0  0  0  0  0
   -4.7332    4.7134    0.0000 C   0  0  0  0  0  0  0  0  0  0  0  0
   -5.3463    5.2654    0.0000 C   0  0  0  0  0  0  0  0  0  0  0  0
   -5.1748    6.0724    0.0000 C   0  0  0  0  0  0  0  0  0  0  0  0
   -4.3902    6.3273    0.0000 C   0  0  0  0  0  0  0  0  0  0  0  0
   -3.7771    5.7753    0.0000 C   0  0  0  0  0  0  0  0  0  0  0  0
   -3.9486    4.9683    0.0000 C   0  0  0  0  0  0  0  0  0  0  0  0
   -4.2186    7.1343    0.0000 O   0  0  0  0  0  0  0  0  0  0  0  0
   -4.8317    7.6863    0.0000 C   0  0  0  0  0  0  0  0  0  0  0  0
   -5.4448    8.2383    0.0000 F   0  0  0  0  0  0  0  0  0  0  0  0
   -4.2797    8.2994    0.0000 F   0  0  0  0  0  0  0  0  0  0  0  0
   -5.3838    7.0732    0.0000 F   0  0  0  0  0  0  0  0  0  0  0  0
    0.0000    0.0000    0.0000 H   0  0  0  0  0  0  0  0  0  0  0  0
    0.0000    0.0000    0.0000 H   0  0  0  0  0  0  0  0  0  0  0  0
    0.0000    0.0000    0.0000 H   0  0  0  0  0  0  0  0  0  0  0  0
    0.0000    0.0000    0.0000 H   0  0  0  0  0  0  0  0  0  0  0  0
    0.0000    0.0000    0.0000 H   0  0  0  0  0  0  0  0  0  0  0  0
    0.0000    0.0000    0.0000 H   0  0  0  0  0  0  0  0  0  0  0  0
    0.0000    0.0000    0.0000 H   0  0  0  0  0  0  0  0  0  0  0  0
    0.0000    0.0000    0.0000 H   0  0  0  0  0  0  0  0  0  0  0  0
    0.0000    0.0000    0.0000 H   0  0  0  0  0  0  0  0  0  0  0  0
    0.0000    0.0000    0.0000 H   0  0  0  0  0  0  0  0  0  0  0  0
    0.0000    0.0000    0.0000 H   0  0  0  0  0  0  0  0  0  0  0  0
    0.0000    0.0000    0.0000 H   0  0  0  0  0  0  0  0  0  0  0  0
    0.0000    0.0000    0.0000 H   0  0  0  0  0  0  0  0  0  0  0  0
    0.0000    0.0000    0.0000 H   0  0  0  0  0  0  0  0  0  0  0  0
    0.0000    0.0000    0.0000 H   0  0  0  0  0  0  0  0  0  0  0  0
    0.0000    0.0000    0.0000 H   0  0  0  0  0  0  0  0  0  0  0  0
    0.0000    0.0000    0.0000 H   0  0  0  0  0  0  0  0  0  0  0  0
    0.0000    0.0000    0.0000 H   0  0  0  0  0  0  0  0  0  0  0  0
    0.0000    0.0000    0.0000 H   0  0  0  0  0  0  0  0  0  0  0  0
    0.0000    0.0000    0.0000 H   0  0  0  0  0  0  0  0  0  0  0  0
    0.0000    0.0000    0.0000 H   0  0  0  0  0  0  0  0  0  0  0  0
    0.0000    0.0000    0.0000 H   0  0  0  0  0  0  0  0  0  0  0  0
    0.0000    0.0000    0.0000 H   0  0  0  0  0  0  0  0  0  0  0  0
    0.0000    0.0000    0.0000 H   0  0  0  0  0  0  0  0  0  0  0  0
    0.0000    0.0000    0.0000 H   0  0  0  0  0  0  0  0  0  0  0  0
  2  1  1  6
  2  3  1  0
  3  4  1  0
  4  5  1  0
  5  6  2  0
  6  7  1  0
  7  8  2  0
  4  8  1  0
  8  9  1  0
  2  9  1  0
  6 10  1  0
 10 11  2  0
 10 12  1  0
  2 13  1  0
 13 14  1  0
 14 15  1  0
 15 16  2  0
 16 17  1  0
 17 18  2  0
 18 19  1  0
 19 20  2  0
 15 20  1  0
 18 21  1  0
 21 22  1  0
 22 23  1  0
 23 24  1  0
 24 25  1  0
 25 26  1  0
 21 26  1  0
 24 27  1  0
 27 28  1  0
 28 29  2  0
 29 30  1  0
 30 31  2  0
 31 32  1  0
 32 33  2  0
 28 33  1  0
 31 34  1  0
 34 35  1  0
 35 36  1  0
 35 37  1  0
 35 38  1  0
  1 39  1  0
  1 40  1  0
  1 41  1  0
  3 42  1  0
  3 43  1  0
  5 44  1  0
 13 45  1  0
 13 46  1  0
 16 47  1  0
 17 48  1  0
 19 49  1  0
 20 50  1  0
 22 51  1  0
 22 52  1  0
 23 53  1  0
 23 54  1  0
 24 55  1  0
 25 56  1  0
 25 57  1  0
 26 58  1  0
 26 59  1  0
 29 60  1  0
 30 61  1  0
 32 62  1  0
 33 63  1  0
M  CHG  2  10   1  12  -1
M  END
>  <ALOGPS_LOGP>  (1) 
5.71

>  <ALOGPS_LOGS>  (1) 
-5.38

>  <ALOGPS_SOLUBILITY>  (1) 
2.22e-03 g/l

>  <DATABASE_ID>  (1) 
DB11637

>  <DATABASE_NAME>  (1) 
drugbank

>  <DRUGBANK_ID>  (1) 
DB11637

>  <DRUG_GROUPS>  (1) 
approved; investigational

>  <EXACT_MASS>  (1) 
534.17261903

>  <FORMULA>  (1) 
C25H25F3N4O6

>  <GENERIC_NAME>  (1) 
Delamanid

>  <INCHI_IDENTIFIER>  (1) 
InChI=1S/C25H25F3N4O6/c1-24(15-31-14-22(32(33)34)29-23(31)38-24)16-35-18-4-2-17(3-5-18)30-12-10-20(11-13-30)36-19-6-8-21(9-7-19)37-25(26,27)28/h2-9,14,20H,10-13,15-16H2,1H3/t24-/m1/s1

>  <INCHI_KEY>  (1) 
XDAOLTSRNUSPPH-XMMPIXPASA-N

>  <JCHEM_ACCEPTOR_COUNT>  (1) 
8

>  <JCHEM_ATOM_COUNT>  (1) 
63

>  <JCHEM_AVERAGE_POLARIZABILITY>  (1) 
51.855270024893585

>  <JCHEM_BIOAVAILABILITY>  (1) 
0

>  <JCHEM_DONOR_COUNT>  (1) 
0

>  <JCHEM_FORMAL_CHARGE>  (1) 
0

>  <JCHEM_GHOSE_FILTER>  (1) 
0

>  <JCHEM_IUPAC>  (1) 
1-(4-{[(2R)-2-methyl-6-nitro-2H,3H-imidazo[2,1-b][1,3]oxazol-2-yl]methoxy}phenyl)-4-[4-(trifluoromethoxy)phenoxy]piperidine

>  <JCHEM_LOGP>  (1) 
6.143707376000002

>  <JCHEM_MDDR_LIKE_RULE>  (1) 
1

>  <JCHEM_NUMBER_OF_RINGS>  (1) 
5

>  <JCHEM_PHYSIOLOGICAL_CHARGE>  (1) 
0

>  <JCHEM_PKA_STRONGEST_BASIC>  (1) 
5.510213694319163

>  <JCHEM_POLAR_SURFACE_AREA>  (1) 
101.12

>  <JCHEM_REFRACTIVITY>  (1) 
124.85470000000001

>  <JCHEM_ROTATABLE_BOND_COUNT>  (1) 
9

>  <JCHEM_RULE_OF_FIVE>  (1) 
0

>  <JCHEM_TRADITIONAL_IUPAC>  (1) 
1-(4-{[(2R)-2-methyl-6-nitro-3H-imidazo[2,1-b][1,3]oxazol-2-yl]methoxy}phenyl)-4-[4-(trifluoromethoxy)phenoxy]piperidine

>  <JCHEM_VEBER_RULE>  (1) 
0

>  <MOLECULAR_WEIGHT>  (1) 
534.492

>  <SMILES>  (1) 
C[C@]1(COC2=CC=C(C=C2)N2CCC(CC2)OC2=CC=C(OC(F)(F)F)C=C2)CN2C=C(N=C2O1)[N+]([O-])=O

$$$$
