
     RDKit          2D

 50 50  0  0  0  0  0  0  0  0999 V2000
    1.4161    2.3288    0.0000 C   0  0  0  0  0  0  0  0  0  0  0  0
    0.6143    1.6344    0.0000 C   0  0  0  0  0  0  0  0  0  0  0  0
    3.2995    1.6763    0.0000 C   0  0  0  0  0  0  0  0  0  0  0  0
    3.5000    0.6348    0.0000 C   0  0  0  0  0  0  0  0  0  0  0  0
    0.3359    1.3933    0.0000 C   0  0  0  0  0  0  0  0  0  0  0  0
   -0.4658    0.6990    0.0000 C   0  0  0  0  0  0  0  0  0  0  0  0
    2.4198   -0.3006    0.0000 C   0  0  0  0  0  0  0  0  0  0  0  0
    1.9932   -0.6701    0.0000 C   0  0  0  0  0  0  0  0  0  0  0  0
   -0.0891   -1.2584    0.0000 C   0  0  0  0  0  0  0  0  0  0  0  0
    0.9130   -1.6055    0.0000 C   0  0  0  0  0  0  0  0  0  0  0  0
    2.2391    1.6598    0.0000 O   0  0  0  0  0  0  0  0  0  0  0  0
    1.1589    0.7243    0.0000 O   0  0  0  0  0  0  0  0  0  0  0  0
    2.5091    0.2566    0.0000 O   0  0  0  0  0  0  0  0  0  0  0  0
    0.0787   -0.2111    0.0000 O   0  0  0  0  0  0  0  0  0  0  0  0
    1.4289   -0.6789    0.0000 O   0  0  0  0  0  0  0  0  0  0  0  0
    1.4289    1.5039    0.0000 Si  0  0  0  0  0  0  0  0  0  0  0  0
    2.7792    1.0361    0.0000 Si  0  0  0  0  0  0  0  0  0  0  0  0
    0.3488    0.5684    0.0000 Si  0  0  0  0  0  0  0  0  0  0  0  0
    1.6990    0.1007    0.0000 Si  0  0  0  0  0  0  0  0  0  0  0  0
    0.6188   -0.8348    0.0000 Si  0  0  0  0  0  0  0  0  0  0  0  0
    0.0000    0.0000    0.0000 H   0  0  0  0  0  0  0  0  0  0  0  0
    0.0000    0.0000    0.0000 H   0  0  0  0  0  0  0  0  0  0  0  0
    0.0000    0.0000    0.0000 H   0  0  0  0  0  0  0  0  0  0  0  0
    0.0000    0.0000    0.0000 H   0  0  0  0  0  0  0  0  0  0  0  0
    0.0000    0.0000    0.0000 H   0  0  0  0  0  0  0  0  0  0  0  0
    0.0000    0.0000    0.0000 H   0  0  0  0  0  0  0  0  0  0  0  0
    0.0000    0.0000    0.0000 H   0  0  0  0  0  0  0  0  0  0  0  0
    0.0000    0.0000    0.0000 H   0  0  0  0  0  0  0  0  0  0  0  0
    0.0000    0.0000    0.0000 H   0  0  0  0  0  0  0  0  0  0  0  0
    0.0000    0.0000    0.0000 H   0  0  0  0  0  0  0  0  0  0  0  0
    0.0000    0.0000    0.0000 H   0  0  0  0  0  0  0  0  0  0  0  0
    0.0000    0.0000    0.0000 H   0  0  0  0  0  0  0  0  0  0  0  0
    0.0000    0.0000    0.0000 H   0  0  0  0  0  0  0  0  0  0  0  0
    0.0000    0.0000    0.0000 H   0  0  0  0  0  0  0  0  0  0  0  0
    0.0000    0.0000    0.0000 H   0  0  0  0  0  0  0  0  0  0  0  0
    0.0000    0.0000    0.0000 H   0  0  0  0  0  0  0  0  0  0  0  0
    0.0000    0.0000    0.0000 H   0  0  0  0  0  0  0  0  0  0  0  0
    0.0000    0.0000    0.0000 H   0  0  0  0  0  0  0  0  0  0  0  0
    0.0000    0.0000    0.0000 H   0  0  0  0  0  0  0  0  0  0  0  0
    0.0000    0.0000    0.0000 H   0  0  0  0  0  0  0  0  0  0  0  0
    0.0000    0.0000    0.0000 H   0  0  0  0  0  0  0  0  0  0  0  0
    0.0000    0.0000    0.0000 H   0  0  0  0  0  0  0  0  0  0  0  0
    0.0000    0.0000    0.0000 H   0  0  0  0  0  0  0  0  0  0  0  0
    0.0000    0.0000    0.0000 H   0  0  0  0  0  0  0  0  0  0  0  0
    0.0000    0.0000    0.0000 H   0  0  0  0  0  0  0  0  0  0  0  0
    0.0000    0.0000    0.0000 H   0  0  0  0  0  0  0  0  0  0  0  0
    0.0000    0.0000    0.0000 H   0  0  0  0  0  0  0  0  0  0  0  0
    0.0000    0.0000    0.0000 H   0  0  0  0  0  0  0  0  0  0  0  0
    0.0000    0.0000    0.0000 H   0  0  0  0  0  0  0  0  0  0  0  0
    0.0000    0.0000    0.0000 H   0  0  0  0  0  0  0  0  0  0  0  0
 16  1  1  0
 16  2  1  0
 16 11  1  0
 16 12  1  0
 17  3  1  0
 17  4  1  0
 17 11  1  0
 17 13  1  0
 18  5  1  0
 18  6  1  0
 18 12  1  0
 18 14  1  0
 19  7  1  0
 19  8  1  0
 19 13  1  0
 19 15  1  0
 20  9  1  0
 20 10  1  0
 20 14  1  0
 20 15  1  0
  1 21  1  0
  1 22  1  0
  1 23  1  0
  2 24  1  0
  2 25  1  0
  2 26  1  0
  3 27  1  0
  3 28  1  0
  3 29  1  0
  4 30  1  0
  4 31  1  0
  4 32  1  0
  5 33  1  0
  5 34  1  0
  5 35  1  0
  6 36  1  0
  6 37  1  0
  6 38  1  0
  7 39  1  0
  7 40  1  0
  7 41  1  0
  8 42  1  0
  8 43  1  0
  8 44  1  0
  9 45  1  0
  9 46  1  0
  9 47  1  0
 10 48  1  0
 10 49  1  0
 10 50  1  0
M  END
>  <ALOGPS_LOGP>  (1) 
4.08

>  <ALOGPS_LOGS>  (1) 
-4.66

>  <ALOGPS_SOLUBILITY>  (1) 
8.03e-03 g/l

>  <DATABASE_ID>  (1) 
DB11244

>  <DATABASE_NAME>  (1) 
drugbank

>  <DRUGBANK_ID>  (1) 
DB11244

>  <DRUG_GROUPS>  (1) 
approved

>  <EXACT_MASS>  (1) 
370.093956741

>  <FORMULA>  (1) 
C10H30O5Si5

>  <GENERIC_NAME>  (1) 
Cyclomethicone 5

>  <INCHI_IDENTIFIER>  (1) 
InChI=1S/C10H30O5Si5/c1-16(2)11-17(3,4)13-19(7,8)15-20(9,10)14-18(5,6)12-16/h1-10H3

>  <INCHI_KEY>  (1) 
XMSXQFUHVRWGNA-UHFFFAOYSA-N

>  <JCHEM_ACCEPTOR_COUNT>  (1) 
5

>  <JCHEM_ATOM_COUNT>  (1) 
50

>  <JCHEM_AVERAGE_POLARIZABILITY>  (1) 
35.135750317291766

>  <JCHEM_BIOAVAILABILITY>  (1) 
1

>  <JCHEM_DONOR_COUNT>  (1) 
0

>  <JCHEM_FORMAL_CHARGE>  (1) 
0

>  <JCHEM_GHOSE_FILTER>  (1) 
1

>  <JCHEM_IUPAC>  (1) 
decamethyl-1,3,5,7,9,2,4,6,8,10-pentaoxapentasilecane

>  <JCHEM_LOGP>  (1) 
0.9579999999999993

>  <JCHEM_MDDR_LIKE_RULE>  (1) 
0

>  <JCHEM_NUMBER_OF_RINGS>  (1) 
1

>  <JCHEM_PHYSIOLOGICAL_CHARGE>  (1) 
0

>  <JCHEM_PKA_STRONGEST_BASIC>  (1) 
-3.348965300621655

>  <JCHEM_POLAR_SURFACE_AREA>  (1) 
46.150000000000006

>  <JCHEM_REFRACTIVITY>  (1) 
66.20800000000001

>  <JCHEM_ROTATABLE_BOND_COUNT>  (1) 
0

>  <JCHEM_RULE_OF_FIVE>  (1) 
1

>  <JCHEM_TRADITIONAL_IUPAC>  (1) 
decamethylcyclopentasiloxane

>  <JCHEM_VEBER_RULE>  (1) 
0

>  <MOLECULAR_WEIGHT>  (1) 
370.77

>  <PRODUCTS>  (1) 
3ce CR Eamy Water Proof Eye Liner 01 Cats; 3ce CR Eamy Water Proof Eye Liner 02 Zorro; 3ce CR Eamy Water Proof Eye Liner 08 Les Miserables; 3ce CR Eamy Water Proof Eye Liner 13 Caffeine; 3ce Pink Im Good Mascara; Bp; Lightening Serum; Secret Key Tattoo Cover Cushion Spf50 Plus (21 Light Beige); Secret Key Tattoo Cover Cushion Spf50 Plus (23 Natural Beige)

>  <SMILES>  (1) 
C[Si]1(C)O[Si](C)(C)O[Si](C)(C)O[Si](C)(C)O[Si](C)(C)O1

$$$$
