
     RDKit          2D

 13  8  0  0  0  0  0  0  0  0999 V2000
    2.0210   -0.7834    0.0000 O   0  0  0  0  0  0  0  0  0  0  0  0
    2.0210    0.0408    0.0000 P   0  0  0  0  0  0  0  0  0  0  0  0
    2.8460    0.0408    0.0000 O   0  0  0  0  0  0  0  0  0  0  0  0
    2.0210    0.8659    0.0000 O   0  0  0  0  0  0  0  0  0  0  0  0
    1.1967    0.0408    0.0000 O   0  0  0  0  0  0  0  0  0  0  0  0
   -1.2784    0.0408    0.0000 Ca  0  0  0  0  0  0  0  0  0  0  0  0
   -3.5886    0.0408    0.0000 Ca  0  0  0  0  0  0  0  0  0  0  0  0
   -5.8987    0.0408    0.0000 Ca  0  0  0  0  0  0  0  0  0  0  0  0
    5.0737   -0.8659    0.0000 O   0  0  0  0  0  0  0  0  0  0  0  0
    5.0737   -0.0408    0.0000 P   0  0  0  0  0  0  0  0  0  0  0  0
    5.8987   -0.0408    0.0000 O   0  0  0  0  0  0  0  0  0  0  0  0
    5.0737    0.7834    0.0000 O   0  0  0  0  0  0  0  0  0  0  0  0
    4.2486   -0.0408    0.0000 O   0  0  0  0  0  0  0  0  0  0  0  0
  1  2  2  0
  2  3  1  0
  2  4  1  0
  2  5  1  0
  9 10  2  0
 10 11  1  0
 10 12  1  0
 10 13  1  0
M  CHG  8   3  -1   4  -1   5  -1   6   2   7   2   8   2  11  -1  12  -1
M  CHG  1  13  -1
M  END
>  <DATABASE_ID>  (1) 
DB11348

>  <DATABASE_NAME>  (1) 
drugbank

>  <DRUGBANK_ID>  (1) 
DB11348

>  <DRUG_GROUPS>  (1) 
approved

>  <EXACT_MASS>  (1) 
309.794613465

>  <FORMULA>  (1) 
Ca3O8P2

>  <GENERIC_NAME>  (1) 
Calcium Phosphate

>  <INCHI_IDENTIFIER>  (1) 
InChI=1S/3Ca.2H3O4P/c;;;2*1-5(2,3)4/h;;;2*(H3,1,2,3,4)/q3*+2;;/p-6

>  <INCHI_KEY>  (1) 
QORWJWZARLRLPR-UHFFFAOYSA-H

>  <JCHEM_ACCEPTOR_COUNT>  (1) 
4

>  <JCHEM_AVERAGE_POLARIZABILITY>  (1) 
4.932836023261143

>  <JCHEM_BIOAVAILABILITY>  (1) 
1

>  <JCHEM_DONOR_COUNT>  (1) 
0

>  <JCHEM_FORMAL_CHARGE>  (1) 
0

>  <JCHEM_GHOSE_FILTER>  (1) 
0

>  <JCHEM_IUPAC>  (1) 
tricalcium diphosphate

>  <JCHEM_LOGP>  (1) 
-1.0201038226666665

>  <JCHEM_MDDR_LIKE_RULE>  (1) 
0

>  <JCHEM_NUMBER_OF_RINGS>  (1) 
0

>  <JCHEM_PHYSIOLOGICAL_CHARGE>  (1) 
-2

>  <JCHEM_PKA>  (1) 
6.951626889535468

>  <JCHEM_PKA_STRONGEST_ACIDIC>  (1) 
1.7961261340181292

>  <JCHEM_POLAR_SURFACE_AREA>  (1) 
86.25

>  <JCHEM_REFRACTIVITY>  (1) 
11.2868

>  <JCHEM_ROTATABLE_BOND_COUNT>  (1) 
0

>  <JCHEM_RULE_OF_FIVE>  (1) 
1

>  <JCHEM_TRADITIONAL_IUPAC>  (1) 
tricalcium diphosphate

>  <JCHEM_VEBER_RULE>  (1) 
0

>  <MOLECULAR_WEIGHT>  (1) 
310.177

>  <PRODUCTS>  (1) 
Biorepair Sensitive Teeth; Biorepair Total Protection; Biovita; Central-vite 18 Essential; Century Complete; Children's Chewable Multivitamin and Multimineral; Complete Multivitamins and Minerals for Children; DIO Enamel Coating Pen Pro Tooth; Folcal DHA; Folivane-PRx DHA; Ifb; J.T. Formula; L.G.I.T.; Milk Calcium With Vitamins C, D, and Phosphorous; Mineralex; Multiple Vitamins & Minerals Tablets; Multivitamines Et Mineraux Junior Regulier; Multivitamines Et Mineraux Reguliers / Regular Multivitamins and Minerals; Multivitamins and Minerals - Complete; Multivitamins and Multiminerals Formula Regular Tablet; NAVI Black and C-Clinic; NAVI MAXON Sirin Doctor; Natelle One; PNV Prenatal Vitamin Plus Vitamin A; PreNexa; Prenaissance; Solmeet; Solmeet denti doctor; Stom #2; Triveen-PRx RNF; VemaVite-PRx 2 with Fish-Based DHA; Vp-ggr-B6

>  <SALTS>  (1) 
Calcium phosphate, dibasic; Calcium phosphate, dibasic, dihydrate; Calcium phosphate, tribasic

>  <SECONDARY_ACCESSION_NUMBERS>  (1) 
DB11052; DB11053

>  <SMILES>  (1) 
[Ca++].[Ca++].[Ca++].[O-]P([O-])([O-])=O.[O-]P([O-])([O-])=O

>  <SYNONYMS>  (1) 
Calcium phosphates; Phosphoric acid, calcium salt

$$$$
