
     RDKit          2D

  2  1  0  0  0  0  0  0  0  0999 V2000
    0.0000    0.0000    0.0000 F   0  0  0  0  0  0  0  0  0  0  0  0
    0.0000    0.0000    0.0000 H   0  0  0  0  0  0  0  0  0  0  0  0
  1  2  1  0
M  END
>  <DATABASE_ID>  (1) 
DB11072

>  <DATABASE_NAME>  (1) 
drugbank

>  <DRUGBANK_ID>  (1) 
DB11072

>  <DRUG_GROUPS>  (1) 
approved

>  <EXACT_MASS>  (1) 
20.006228237

>  <FORMULA>  (1) 
FH

>  <GENERIC_NAME>  (1) 
Hydrofluoric acid

>  <INCHI_IDENTIFIER>  (1) 
InChI=1S/FH/h1H

>  <INCHI_KEY>  (1) 
KRHYYFGTRYWZRS-UHFFFAOYSA-N

>  <JCHEM_ACCEPTOR_COUNT>  (1) 
0

>  <JCHEM_AVERAGE_POLARIZABILITY>  (1) 
0.7916237815811438

>  <JCHEM_BIOAVAILABILITY>  (1) 
1

>  <JCHEM_DONOR_COUNT>  (1) 
0

>  <JCHEM_FORMAL_CHARGE>  (1) 
0

>  <JCHEM_GHOSE_FILTER>  (1) 
0

>  <JCHEM_IUPAC>  (1) 
hydrogen fluoride

>  <JCHEM_LOGP>  (1) 
0.14883863966666666

>  <JCHEM_MDDR_LIKE_RULE>  (1) 
0

>  <JCHEM_NUMBER_OF_RINGS>  (1) 
0

>  <JCHEM_PHYSIOLOGICAL_CHARGE>  (1) 
-1

>  <JCHEM_PKA_STRONGEST_ACIDIC>  (1) 
3.1699999999999995

>  <JCHEM_POLAR_SURFACE_AREA>  (1) 
0

>  <JCHEM_REFRACTIVITY>  (1) 
1.6725

>  <JCHEM_ROTATABLE_BOND_COUNT>  (1) 
0

>  <JCHEM_RULE_OF_FIVE>  (1) 
1

>  <JCHEM_TRADITIONAL_IUPAC>  (1) 
hydrogen fluoride

>  <JCHEM_VEBER_RULE>  (1) 
1

>  <MOLECULAR_WEIGHT>  (1) 
20.0063

>  <PRODUCTS>  (1) 
Alpha-Pro; Denti-Care Topical Fluoride Foam Bubble Gum; Denti-Care Topical Fluoride Foam Grape; Denti-Care Topical Fluoride Foam Orange; Denti-Care Topical Fluoride Foam Raspberry; Denti-Care Topical Sodium Fluoride Strawberry; Oral-B Minute-Foam Orang-A-Tangy; Perfect Choice; Phocal Apf; Topical Fluoride Foam Bumble Bee Bubble Gum

>  <SMILES>  (1) 
F

$$$$
