
     RDKit          2D

 72 72  0  0  0  0  0  0  0  0999 V2000
   -2.1777   -3.5062    0.0000 N   0  0  0  0  0  0  0  0  0  0  0  0
   -1.4632   -3.0937    0.0000 C   0  0  0  0  0  0  0  0  0  0  0  0
   -1.4632   -2.2687    0.0000 C   0  0  0  0  0  0  0  0  0  0  0  0
   -2.8922   -3.9187    0.0000 C   0  0  0  0  0  0  0  0  0  0  0  0
   -0.7487   -1.8562    0.0000 C   0  0  0  0  0  0  0  0  0  0  0  0
   -2.5903   -2.7917    0.0000 C   0  0  0  0  0  0  0  0  0  0  0  0
   -1.7653   -4.2207    0.0000 C   0  0  0  0  0  0  0  0  0  0  0  0
   -0.7487   -1.0312    0.0000 C   0  0  0  0  0  0  0  0  0  0  0  0
   -0.0343   -0.6187    0.0000 C   0  0  0  0  0  0  0  0  0  0  0  0
   -0.0343    0.2062    0.0000 C   0  0  0  0  0  0  0  0  0  0  0  0
    0.6802    0.6187    0.0000 C   0  0  0  0  0  0  0  0  0  0  0  0
   -2.8922   -4.7437    0.0000 C   0  0  0  0  0  0  0  0  0  0  0  0
    0.6802    1.4437    0.0000 C   0  0  0  0  0  0  0  0  0  0  0  0
    1.3946    1.8562    0.0000 C   0  0  0  0  0  0  0  0  0  0  0  0
    1.3946    2.6812    0.0000 C   0  0  0  0  0  0  0  0  0  0  0  0
    2.1091    3.0937    0.0000 C   0  0  0  0  0  0  0  0  0  0  0  0
    2.1091    3.9187    0.0000 C   0  0  0  0  0  0  0  0  0  0  0  0
   -3.6066   -5.1562    0.0000 C   0  0  0  0  0  0  0  0  0  0  0  0
   -2.1777   -5.1562    0.0000 C   0  0  0  0  0  0  0  0  0  0  0  0
    2.8235    4.3312    0.0000 C   0  0  0  0  0  0  0  0  0  0  0  0
    2.8235    5.1562    0.0000 C   0  0  0  0  0  0  0  0  0  0  0  0
   -3.6066   -5.9812    0.0000 C   0  0  0  0  0  0  0  0  0  0  0  0
   -2.1777   -5.9812    0.0000 C   0  0  0  0  0  0  0  0  0  0  0  0
    3.5381    5.5687    0.0000 C   0  0  0  0  0  0  0  0  0  0  0  0
   -2.8922   -6.3937    0.0000 C   0  0  0  0  0  0  0  0  0  0  0  0
    3.5381    6.3937    0.0000 C   0  0  0  0  0  0  0  0  0  0  0  0
    0.0000    0.0000    0.0000 H   0  0  0  0  0  0  0  0  0  0  0  0
    0.0000    0.0000    0.0000 H   0  0  0  0  0  0  0  0  0  0  0  0
    0.0000    0.0000    0.0000 H   0  0  0  0  0  0  0  0  0  0  0  0
    0.0000    0.0000    0.0000 H   0  0  0  0  0  0  0  0  0  0  0  0
    0.0000    0.0000    0.0000 H   0  0  0  0  0  0  0  0  0  0  0  0
    0.0000    0.0000    0.0000 H   0  0  0  0  0  0  0  0  0  0  0  0
    0.0000    0.0000    0.0000 H   0  0  0  0  0  0  0  0  0  0  0  0
    0.0000    0.0000    0.0000 H   0  0  0  0  0  0  0  0  0  0  0  0
    0.0000    0.0000    0.0000 H   0  0  0  0  0  0  0  0  0  0  0  0
    0.0000    0.0000    0.0000 H   0  0  0  0  0  0  0  0  0  0  0  0
    0.0000    0.0000    0.0000 H   0  0  0  0  0  0  0  0  0  0  0  0
    0.0000    0.0000    0.0000 H   0  0  0  0  0  0  0  0  0  0  0  0
    0.0000    0.0000    0.0000 H   0  0  0  0  0  0  0  0  0  0  0  0
    0.0000    0.0000    0.0000 H   0  0  0  0  0  0  0  0  0  0  0  0
    0.0000    0.0000    0.0000 H   0  0  0  0  0  0  0  0  0  0  0  0
    0.0000    0.0000    0.0000 H   0  0  0  0  0  0  0  0  0  0  0  0
    0.0000    0.0000    0.0000 H   0  0  0  0  0  0  0  0  0  0  0  0
    0.0000    0.0000    0.0000 H   0  0  0  0  0  0  0  0  0  0  0  0
    0.0000    0.0000    0.0000 H   0  0  0  0  0  0  0  0  0  0  0  0
    0.0000    0.0000    0.0000 H   0  0  0  0  0  0  0  0  0  0  0  0
    0.0000    0.0000    0.0000 H   0  0  0  0  0  0  0  0  0  0  0  0
    0.0000    0.0000    0.0000 H   0  0  0  0  0  0  0  0  0  0  0  0
    0.0000    0.0000    0.0000 H   0  0  0  0  0  0  0  0  0  0  0  0
    0.0000    0.0000    0.0000 H   0  0  0  0  0  0  0  0  0  0  0  0
    0.0000    0.0000    0.0000 H   0  0  0  0  0  0  0  0  0  0  0  0
    0.0000    0.0000    0.0000 H   0  0  0  0  0  0  0  0  0  0  0  0
    0.0000    0.0000    0.0000 H   0  0  0  0  0  0  0  0  0  0  0  0
    0.0000    0.0000    0.0000 H   0  0  0  0  0  0  0  0  0  0  0  0
    0.0000    0.0000    0.0000 H   0  0  0  0  0  0  0  0  0  0  0  0
    0.0000    0.0000    0.0000 H   0  0  0  0  0  0  0  0  0  0  0  0
    0.0000    0.0000    0.0000 H   0  0  0  0  0  0  0  0  0  0  0  0
    0.0000    0.0000    0.0000 H   0  0  0  0  0  0  0  0  0  0  0  0
    0.0000    0.0000    0.0000 H   0  0  0  0  0  0  0  0  0  0  0  0
    0.0000    0.0000    0.0000 H   0  0  0  0  0  0  0  0  0  0  0  0
    0.0000    0.0000    0.0000 H   0  0  0  0  0  0  0  0  0  0  0  0
    0.0000    0.0000    0.0000 H   0  0  0  0  0  0  0  0  0  0  0  0
    0.0000    0.0000    0.0000 H   0  0  0  0  0  0  0  0  0  0  0  0
    0.0000    0.0000    0.0000 H   0  0  0  0  0  0  0  0  0  0  0  0
    0.0000    0.0000    0.0000 H   0  0  0  0  0  0  0  0  0  0  0  0
    0.0000    0.0000    0.0000 H   0  0  0  0  0  0  0  0  0  0  0  0
    0.0000    0.0000    0.0000 H   0  0  0  0  0  0  0  0  0  0  0  0
    0.0000    0.0000    0.0000 H   0  0  0  0  0  0  0  0  0  0  0  0
    0.0000    0.0000    0.0000 H   0  0  0  0  0  0  0  0  0  0  0  0
    0.0000    0.0000    0.0000 H   0  0  0  0  0  0  0  0  0  0  0  0
    0.0000    0.0000    0.0000 H   0  0  0  0  0  0  0  0  0  0  0  0
    0.0000    0.0000    0.0000 H   0  0  0  0  0  0  0  0  0  0  0  0
  1  2  1  0
  1  4  1  0
  1  6  1  0
  1  7  1  0
  2  3  1  0
  3  5  1  0
  4 12  1  0
  5  8  1  0
  8  9  1  0
  9 10  1  0
 10 11  1  0
 11 13  1  0
 12 18  2  0
 12 19  1  0
 13 14  1  0
 14 15  1  0
 15 16  1  0
 16 17  1  0
 17 20  1  0
 18 22  1  0
 19 23  2  0
 20 21  1  0
 21 24  1  0
 22 25  2  0
 23 25  1  0
 24 26  1  0
  2 27  1  0
  2 28  1  0
  3 29  1  0
  3 30  1  0
  4 31  1  0
  4 32  1  0
  5 33  1  0
  5 34  1  0
  6 35  1  0
  6 36  1  0
  6 37  1  0
  7 38  1  0
  7 39  1  0
  7 40  1  0
  8 41  1  0
  8 42  1  0
  9 43  1  0
  9 44  1  0
 10 45  1  0
 10 46  1  0
 11 47  1  0
 11 48  1  0
 13 49  1  0
 13 50  1  0
 14 51  1  0
 14 52  1  0
 15 53  1  0
 15 54  1  0
 16 55  1  0
 16 56  1  0
 17 57  1  0
 17 58  1  0
 18 59  1  0
 19 60  1  0
 20 61  1  0
 20 62  1  0
 21 63  1  0
 21 64  1  0
 22 65  1  0
 23 66  1  0
 24 67  1  0
 24 68  1  0
 25 69  1  0
 26 70  1  0
 26 71  1  0
 26 72  1  0
M  CHG  1   1   1
M  END
>  <ALOGPS_LOGP>  (1) 
4.67

>  <ALOGPS_LOGS>  (1) 
-8.07

>  <ALOGPS_SOLUBILITY>  (1) 
3.37e-06 g/l

>  <DATABASE_ID>  (1) 
DB11583

>  <DATABASE_NAME>  (1) 
drugbank

>  <DRUGBANK_ID>  (1) 
DB11583

>  <DRUG_GROUPS>  (1) 
approved

>  <EXACT_MASS>  (1) 
360.362476905

>  <FORMULA>  (1) 
C25H46N

>  <GENERIC_NAME>  (1) 
Cetalkonium

>  <INCHI_IDENTIFIER>  (1) 
InChI=1S/C25H46N/c1-4-5-6-7-8-9-10-11-12-13-14-15-16-20-23-26(2,3)24-25-21-18-17-19-22-25/h17-19,21-22H,4-16,20,23-24H2,1-3H3/q+1

>  <INCHI_KEY>  (1) 
QDYLMAYUEZBUFO-UHFFFAOYSA-N

>  <JCHEM_ACCEPTOR_COUNT>  (1) 
0

>  <JCHEM_ATOM_COUNT>  (1) 
72

>  <JCHEM_AVERAGE_POLARIZABILITY>  (1) 
49.614537076743034

>  <JCHEM_BIOAVAILABILITY>  (1) 
1

>  <JCHEM_DONOR_COUNT>  (1) 
0

>  <JCHEM_FORMAL_CHARGE>  (1) 
1

>  <JCHEM_GHOSE_FILTER>  (1) 
0

>  <JCHEM_IUPAC>  (1) 
benzyl(hexadecyl)dimethylazanium

>  <JCHEM_LOGP>  (1) 
4.411028961194921

>  <JCHEM_MDDR_LIKE_RULE>  (1) 
0

>  <JCHEM_NUMBER_OF_RINGS>  (1) 
1

>  <JCHEM_PHYSIOLOGICAL_CHARGE>  (1) 
1

>  <JCHEM_PKA_STRONGEST_ACIDIC>  (1) 
18.10976193549863

>  <JCHEM_POLAR_SURFACE_AREA>  (1) 
0.0

>  <JCHEM_REFRACTIVITY>  (1) 
129.59990000000002

>  <JCHEM_ROTATABLE_BOND_COUNT>  (1) 
17

>  <JCHEM_RULE_OF_FIVE>  (1) 
1

>  <JCHEM_TRADITIONAL_IUPAC>  (1) 
benzyl(hexadecyl)dimethylazanium

>  <JCHEM_VEBER_RULE>  (1) 
0

>  <MOLECULAR_WEIGHT>  (1) 
360.649

>  <PRODUCTS>  (1) 
Bionet Lozenge; Emercol Loz; Teejel Gel

>  <SALTS>  (1) 
Cetalkonium bromide; Cetalkonium chloride

>  <SMILES>  (1) 
CCCCCCCCCCCCCCCC[N+](C)(C)CC1=CC=CC=C1

>  <SYNONYMS>  (1) 
Benzylhexadecyldimethylammonium; Cetalkonium cation; Cetalkonium ion

$$$$
