
     RDKit          2D

  2  1  0  0  0  0  0  0  0  0999 V2000
    0.0000   -0.4125    0.0000 Cl  0  0  0  0  0  0  0  0  0  0  0  0
    0.0000    0.4125    0.0000 Cl  0  0  0  0  0  0  0  0  0  0  0  0
  1  2  1  0
M  END
>  <DATABASE_ID>  (1) 
DB11109

>  <DATABASE_NAME>  (1) 
drugbank

>  <DRUGBANK_ID>  (1) 
DB11109

>  <DRUG_GROUPS>  (1) 
approved

>  <EXACT_MASS>  (1) 
69.937705414

>  <FORMULA>  (1) 
Cl2

>  <GENERIC_NAME>  (1) 
Chlorine

>  <INCHI_IDENTIFIER>  (1) 
InChI=1S/Cl2/c1-2

>  <INCHI_KEY>  (1) 
KZBUYRJDOAKODT-UHFFFAOYSA-N

>  <JCHEM_ACCEPTOR_COUNT>  (1) 
0

>  <JCHEM_AVERAGE_POLARIZABILITY>  (1) 
4.546961026371296

>  <JCHEM_BIOAVAILABILITY>  (1) 
1

>  <JCHEM_DONOR_COUNT>  (1) 
0

>  <JCHEM_FORMAL_CHARGE>  (1) 
0

>  <JCHEM_GHOSE_FILTER>  (1) 
0

>  <JCHEM_IUPAC>  (1) 
dichlorane

>  <JCHEM_LOGP>  (1) 
1.0835902093333334

>  <JCHEM_MDDR_LIKE_RULE>  (1) 
0

>  <JCHEM_NUMBER_OF_RINGS>  (1) 
0

>  <JCHEM_PHYSIOLOGICAL_CHARGE>  (1) 
0

>  <JCHEM_POLAR_SURFACE_AREA>  (1) 
0

>  <JCHEM_REFRACTIVITY>  (1) 
12.2726

>  <JCHEM_ROTATABLE_BOND_COUNT>  (1) 
0

>  <JCHEM_RULE_OF_FIVE>  (1) 
1

>  <JCHEM_TRADITIONAL_IUPAC>  (1) 
chlorine

>  <JCHEM_VEBER_RULE>  (1) 
1

>  <MOLECULAR_WEIGHT>  (1) 
70.906

>  <PRODUCTS>  (1) 
Clorpactin WCS-90

>  <SMILES>  (1) 
ClCl

$$$$
