
     RDKit          2D

  1  0  0  0  0  0  0  0  0  0999 V2000
   14.3925  -12.8725    0.0000 F   0  0  0  0  0  0  0  0  0  0  0  0
M  CHG  1   1  -1
M  END
>  <DATABASE_ID>  (1) 
DB11257

>  <DATABASE_NAME>  (1) 
drugbank

>  <DRUGBANK_ID>  (1) 
DB11257

>  <DRUG_GROUPS>  (1) 
approved

>  <EXACT_MASS>  (1) 
18.998403205

>  <FORMULA>  (1) 
F

>  <GENERIC_NAME>  (1) 
Fluoride ion

>  <INCHI_IDENTIFIER>  (1) 
InChI=1S/FH/h1H/p-1

>  <INCHI_KEY>  (1) 
KRHYYFGTRYWZRS-UHFFFAOYSA-M

>  <JCHEM_ACCEPTOR_COUNT>  (1) 
0

>  <JCHEM_AVERAGE_POLARIZABILITY>  (1) 
0.43590066

>  <JCHEM_BIOAVAILABILITY>  (1) 
1

>  <JCHEM_DONOR_COUNT>  (1) 
0

>  <JCHEM_FORMAL_CHARGE>  (1) 
-1

>  <JCHEM_GHOSE_FILTER>  (1) 
0

>  <JCHEM_IUPAC>  (1) 
fluoride

>  <JCHEM_LOGP>  (1) 
0.14883863966666666

>  <JCHEM_MDDR_LIKE_RULE>  (1) 
0

>  <JCHEM_NUMBER_OF_RINGS>  (1) 
0

>  <JCHEM_PHYSIOLOGICAL_CHARGE>  (1) 
-1

>  <JCHEM_PKA_STRONGEST_ACIDIC>  (1) 
3.1699999999999995

>  <JCHEM_POLAR_SURFACE_AREA>  (1) 
0

>  <JCHEM_REFRACTIVITY>  (1) 
0.8725

>  <JCHEM_ROTATABLE_BOND_COUNT>  (1) 
0

>  <JCHEM_RULE_OF_FIVE>  (1) 
1

>  <JCHEM_TRADITIONAL_IUPAC>  (1) 
fluoride

>  <JCHEM_VEBER_RULE>  (1) 
1

>  <MOLECULAR_WEIGHT>  (1) 
18.9984

>  <PRODUCTS>  (1) 
Multi-Vitamin; Multi-Vitamin Fluoride Drops; Multi-Vitamin Fluoride and Iron Drops; Multi-Vitamin With Fluoride

>  <SMILES>  (1) 
[F-]

$$$$
