
     RDKit          2D

 28 29  0  0  0  0  0  0  0  0999 V2000
    4.1801    5.5902    0.0000 C   0  0  0  0  0  0  0  0  0  0  0  0
    3.8781    2.2581    0.0000 C   0  0  0  0  0  0  0  0  0  0  0  0
    2.7512    7.2402    0.0000 C   0  0  0  0  0  0  0  0  0  0  0  0
    4.1331    3.0428    0.0000 C   0  0  0  0  0  0  0  0  0  0  0  0
    3.4656    4.3527    0.0000 C   0  0  0  0  0  0  0  0  0  0  0  0
    2.7512    4.7652    0.0000 C   0  0  0  0  0  0  0  0  0  0  0  0
    2.0367    6.8277    0.0000 C   0  0  0  0  0  0  0  0  0  0  0  0
    3.4656    6.8277    0.0000 C   0  0  0  0  0  0  0  0  0  0  0  0
    3.0531    2.2581    0.0000 C   0  0  0  0  0  0  0  0  0  0  0  0
    3.4656    3.5277    0.0000 C   0  0  0  0  0  0  0  0  0  0  0  0
    2.7512    5.5902    0.0000 C   0  0  0  0  0  0  0  0  0  0  0  0
    2.0367    6.0027    0.0000 N   0  0  0  0  0  0  0  0  0  0  0  0
    3.4656    6.0027    0.0000 N   0  0  0  0  0  0  0  0  0  0  0  0
    2.7982    3.0428    0.0000 S   0  0  0  0  0  0  0  0  0  0  0  0
    0.0000    0.0000    0.0000 H   0  0  0  0  0  0  0  0  0  0  0  0
    0.0000    0.0000    0.0000 H   0  0  0  0  0  0  0  0  0  0  0  0
    0.0000    0.0000    0.0000 H   0  0  0  0  0  0  0  0  0  0  0  0
    0.0000    0.0000    0.0000 H   0  0  0  0  0  0  0  0  0  0  0  0
    0.0000    0.0000    0.0000 H   0  0  0  0  0  0  0  0  0  0  0  0
    0.0000    0.0000    0.0000 H   0  0  0  0  0  0  0  0  0  0  0  0
    0.0000    0.0000    0.0000 H   0  0  0  0  0  0  0  0  0  0  0  0
    0.0000    0.0000    0.0000 H   0  0  0  0  0  0  0  0  0  0  0  0
    0.0000    0.0000    0.0000 H   0  0  0  0  0  0  0  0  0  0  0  0
    0.0000    0.0000    0.0000 H   0  0  0  0  0  0  0  0  0  0  0  0
    0.0000    0.0000    0.0000 H   0  0  0  0  0  0  0  0  0  0  0  0
    0.0000    0.0000    0.0000 H   0  0  0  0  0  0  0  0  0  0  0  0
    0.0000    0.0000    0.0000 H   0  0  0  0  0  0  0  0  0  0  0  0
    0.0000    0.0000    0.0000 H   0  0  0  0  0  0  0  0  0  0  0  0
  4  2  1  0
  6  5  2  0
  7  3  1  0
  8  3  1  0
  9  2  2  0
 10  4  2  0
 10  5  1  0
 11  6  1  0
 12  7  1  0
 12 11  2  0
 13  1  1  0
 13  8  1  0
 13 11  1  0
 14  9  1  0
 14 10  1  0
  1 15  1  0
  1 16  1  0
  1 17  1  0
  2 18  1  0
  3 19  1  0
  3 20  1  0
  4 21  1  0
  5 22  1  0
  6 23  1  0
  7 24  1  0
  7 25  1  0
  8 26  1  0
  8 27  1  0
  9 28  1  0
M  END
>  <ALOGPS_LOGP>  (1) 
2.69

>  <ALOGPS_LOGS>  (1) 
-3.24

>  <ALOGPS_SOLUBILITY>  (1) 
1.18e-01 g/l

>  <DATABASE_ID>  (1) 
DB11156

>  <DATABASE_NAME>  (1) 
drugbank

>  <DRUGBANK_ID>  (1) 
DB11156

>  <DRUG_GROUPS>  (1) 
approved; vet_approved

>  <EXACT_MASS>  (1) 
206.087769633

>  <FORMULA>  (1) 
C11H14N2S

>  <GENERIC_NAME>  (1) 
Pyrantel

>  <INCHI_IDENTIFIER>  (1) 
InChI=1S/C11H14N2S/c1-13-8-3-7-12-11(13)6-5-10-4-2-9-14-10/h2,4-6,9H,3,7-8H2,1H3/b6-5+

>  <INCHI_KEY>  (1) 
YSAUAVHXTIETRK-AATRIKPKSA-N

>  <JCHEM_ACCEPTOR_COUNT>  (1) 
2

>  <JCHEM_ATOM_COUNT>  (1) 
28

>  <JCHEM_AVERAGE_POLARIZABILITY>  (1) 
23.322536889394833

>  <JCHEM_BIOAVAILABILITY>  (1) 
1

>  <JCHEM_DONOR_COUNT>  (1) 
0

>  <JCHEM_FORMAL_CHARGE>  (1) 
0

>  <JCHEM_GHOSE_FILTER>  (1) 
1

>  <JCHEM_IUPAC>  (1) 
1-methyl-2-[(E)-2-(thiophen-2-yl)ethenyl]-1,4,5,6-tetrahydropyrimidine

>  <JCHEM_LOGP>  (1) 
1.9635495253333333

>  <JCHEM_MDDR_LIKE_RULE>  (1) 
0

>  <JCHEM_NUMBER_OF_RINGS>  (1) 
2

>  <JCHEM_PHYSIOLOGICAL_CHARGE>  (1) 
1

>  <JCHEM_PKA_STRONGEST_BASIC>  (1) 
10.71463975207852

>  <JCHEM_POLAR_SURFACE_AREA>  (1) 
15.6

>  <JCHEM_REFRACTIVITY>  (1) 
61.81360000000001

>  <JCHEM_ROTATABLE_BOND_COUNT>  (1) 
2

>  <JCHEM_RULE_OF_FIVE>  (1) 
1

>  <JCHEM_TRADITIONAL_IUPAC>  (1) 
pyrantel

>  <JCHEM_VEBER_RULE>  (1) 
1

>  <MOLECULAR_WEIGHT>  (1) 
206.31

>  <PRODUCTS>  (1) 
CVS Pinworm Treatment; Combantrin Oral Suspension 50mg/ml; Combantrin Tab 125mg; Jaa Pyral 125 Tablet 125mg; Jaa Pyral 35 Tablet 35mg; Jaa Pyral P Oral Paste - 125mg/g; Jaa Pyral S Suspension 50mg/76; Jamp-pyrantel Pamoate; Jamp-pyrantel Pamoate Suspension; Parasitexx; Parasitol; Pin X; Pin-X; PinAway; Pinworm Medicine; Pinworm Treatment; Pronto Plus Pinworm Treatment; Pyrantel Pamoate; Vermocks; Walgreens Pinworm Medicine; Wormedex

>  <SALTS>  (1) 
Pyrantel pamoate; Pyrantel tartrate

>  <SMILES>  (1) 
[H]\C(=C(\[H])C1=NCCCN1C)C1=CC=CS1

$$$$
