
     RDKit          2D

 38 41  0  0  0  0  0  0  0  0999 V2000
   -1.7101    0.1509    0.0000 C   0  0  0  0  0  0  0  0  0  0  0  0
   -1.7101   -0.6741    0.0000 C   0  0  0  0  0  0  0  0  0  0  0  0
   -1.0088   -1.0866    0.0000 C   0  0  0  0  0  0  0  0  0  0  0  0
   -0.2663   -0.6741    0.0000 C   0  0  0  0  0  0  0  0  0  0  0  0
   -0.2663    0.1509    0.0000 C   0  0  0  0  0  0  0  0  0  0  0  0
   -1.0088    0.5635    0.0000 C   0  0  0  0  0  0  0  0  0  0  0  0
    0.4351   -1.0866    0.0000 C   0  0  0  0  0  0  0  0  0  0  0  0
    1.1363   -0.6741    0.0000 C   0  0  0  0  0  0  0  0  0  0  0  0
    1.1363    0.1509    0.0000 C   0  0  0  0  0  0  0  0  0  0  0  0
    0.4351    0.5635    0.0000 C   0  0  0  0  0  0  0  0  0  0  0  0
   -1.0088    1.3885    0.0000 N   0  0  0  0  0  0  0  0  0  0  0  0
   -0.3487    1.8836    0.0000 C   0  0  0  0  0  0  0  0  0  0  0  0
   -0.5963    2.6261    0.0000 N   0  0  0  0  0  0  0  0  0  0  0  0
   -1.4214    2.6261    0.0000 N   0  0  0  0  0  0  0  0  0  0  0  0
   -1.6689    1.8836    0.0000 C   0  0  0  0  0  0  0  0  0  0  0  0
    0.3524    1.4711    0.0000 S   0  0  0  0  0  0  0  0  0  0  0  0
    1.0538    1.8836    0.0000 C   0  0  0  0  0  0  0  0  0  0  0  0
    1.7551    1.4711    0.0000 C   0  0  0  0  0  0  0  0  0  0  0  0
    2.4564    1.8836    0.0000 O   0  0  0  0  0  0  0  0  0  0  0  0
    1.7551    0.6460    0.0000 O   0  0  0  0  0  0  0  0  0  0  0  0
   -2.4564    1.6377    0.0000 Br  0  0  0  0  0  0  0  0  0  0  0  0
   -1.0189   -1.9116    0.0000 C   0  0  0  0  0  0  0  0  0  0  0  0
   -1.4315   -2.6261    0.0000 C   0  0  0  0  0  0  0  0  0  0  0  0
   -0.6064   -2.6261    0.0000 C   0  0  0  0  0  0  0  0  0  0  0  0
    0.0000    0.0000    0.0000 H   0  0  0  0  0  0  0  0  0  0  0  0
    0.0000    0.0000    0.0000 H   0  0  0  0  0  0  0  0  0  0  0  0
    0.0000    0.0000    0.0000 H   0  0  0  0  0  0  0  0  0  0  0  0
    0.0000    0.0000    0.0000 H   0  0  0  0  0  0  0  0  0  0  0  0
    0.0000    0.0000    0.0000 H   0  0  0  0  0  0  0  0  0  0  0  0
    0.0000    0.0000    0.0000 H   0  0  0  0  0  0  0  0  0  0  0  0
    0.0000    0.0000    0.0000 H   0  0  0  0  0  0  0  0  0  0  0  0
    0.0000    0.0000    0.0000 H   0  0  0  0  0  0  0  0  0  0  0  0
    0.0000    0.0000    0.0000 H   0  0  0  0  0  0  0  0  0  0  0  0
    0.0000    0.0000    0.0000 H   0  0  0  0  0  0  0  0  0  0  0  0
    0.0000    0.0000    0.0000 H   0  0  0  0  0  0  0  0  0  0  0  0
    0.0000    0.0000    0.0000 H   0  0  0  0  0  0  0  0  0  0  0  0
    0.0000    0.0000    0.0000 H   0  0  0  0  0  0  0  0  0  0  0  0
    0.0000    0.0000    0.0000 H   0  0  0  0  0  0  0  0  0  0  0  0
  1  2  2  0
  2  3  1  0
  3  4  2  0
  4  5  1  0
  5  6  2  0
  1  6  1  0
  4  7  1  0
  7  8  2  0
  8  9  1  0
  9 10  2  0
  5 10  1  0
  6 11  1  0
 11 12  1  0
 12 13  2  0
 13 14  1  0
 14 15  2  0
 11 15  1  0
 12 16  1  0
 16 17  1  0
 17 18  1  0
 18 19  1  0
 18 20  2  0
 15 21  1  0
  3 22  1  0
 22 23  1  0
 22 24  1  0
 23 24  1  0
  1 25  1  0
  2 26  1  0
  7 27  1  0
  8 28  1  0
  9 29  1  0
 10 30  1  0
 17 31  1  0
 17 32  1  0
 19 33  1  0
 22 34  1  0
 23 35  1  0
 23 36  1  0
 24 37  1  0
 24 38  1  0
M  END
>  <ALOGPS_LOGP>  (1) 
3.42

>  <ALOGPS_LOGS>  (1) 
-4.72

>  <ALOGPS_SOLUBILITY>  (1) 
7.79e-03 g/l

>  <DATABASE_ID>  (1) 
DB11560

>  <DATABASE_NAME>  (1) 
drugbank

>  <DRUGBANK_ID>  (1) 
DB11560

>  <DRUG_GROUPS>  (1) 
approved

>  <EXACT_MASS>  (1) 
402.999011

>  <FORMULA>  (1) 
C17H14BrN3O2S

>  <GENERIC_NAME>  (1) 
Lesinurad

>  <INCHI_IDENTIFIER>  (1) 
InChI=1S/C17H14BrN3O2S/c18-16-19-20-17(24-9-15(22)23)21(16)14-8-7-11(10-5-6-10)12-3-1-2-4-13(12)14/h1-4,7-8,10H,5-6,9H2,(H,22,23)

>  <INCHI_KEY>  (1) 
FGQFOYHRJSUHMR-UHFFFAOYSA-N

>  <JCHEM_ACCEPTOR_COUNT>  (1) 
4

>  <JCHEM_ATOM_COUNT>  (1) 
38

>  <JCHEM_AVERAGE_POLARIZABILITY>  (1) 
36.587960707142116

>  <JCHEM_BIOAVAILABILITY>  (1) 
1

>  <JCHEM_DONOR_COUNT>  (1) 
1

>  <JCHEM_FORMAL_CHARGE>  (1) 
0

>  <JCHEM_GHOSE_FILTER>  (1) 
1

>  <JCHEM_IUPAC>  (1) 
2-{[5-bromo-4-(4-cyclopropylnaphthalen-1-yl)-4H-1,2,4-triazol-3-yl]sulfanyl}acetic acid

>  <JCHEM_LOGP>  (1) 
4.089902325

>  <JCHEM_MDDR_LIKE_RULE>  (1) 
0

>  <JCHEM_NUMBER_OF_RINGS>  (1) 
4

>  <JCHEM_PHYSIOLOGICAL_CHARGE>  (1) 
-1

>  <JCHEM_PKA_STRONGEST_ACIDIC>  (1) 
3.1345225732015507

>  <JCHEM_PKA_STRONGEST_BASIC>  (1) 
-0.04968458051023705

>  <JCHEM_POLAR_SURFACE_AREA>  (1) 
68.00999999999999

>  <JCHEM_REFRACTIVITY>  (1) 
109.15059999999998

>  <JCHEM_ROTATABLE_BOND_COUNT>  (1) 
4

>  <JCHEM_RULE_OF_FIVE>  (1) 
1

>  <JCHEM_TRADITIONAL_IUPAC>  (1) 
{[5-bromo-4-(4-cyclopropylnaphthalen-1-yl)-1,2,4-triazol-3-yl]sulfanyl}acetic acid

>  <JCHEM_VEBER_RULE>  (1) 
0

>  <MOLECULAR_WEIGHT>  (1) 
404.28

>  <PRODUCTS>  (1) 
Duzallo; Zurampic

>  <SMILES>  (1) 
OC(=O)CSC1=NN=C(Br)N1C1=CC=C(C2CC2)C2=C1C=CC=C2

>  <SYNONYMS>  (1) 
{[5-bromo-4-(4-cyclopropylnaphthalen-1-yl)-4H-1,2,4-triazol-3-yl]sulfanyl}acetic acid

$$$$
