
     RDKit          2D

 50 53  0  0  0  0  0  0  0  0999 V2000
    0.5230   -0.3020    0.0000 C   0  0  0  0  0  0  0  0  0  0  0  0
    1.2375    0.1105    0.0000 C   0  0  0  0  0  0  0  0  0  0  0  0
    1.9520    0.5230    0.0000 C   0  0  0  0  0  0  0  0  0  0  0  0
    1.9520    1.3480    0.0000 C   0  0  0  0  0  0  0  0  0  0  0  0
    2.6664    1.7605    0.0000 C   0  0  0  0  0  0  0  0  0  0  0  0
    3.3809    1.3480    0.0000 C   0  0  0  0  0  0  0  0  0  0  0  0
    3.3809    0.5230    0.0000 C   0  0  0  0  0  0  0  0  0  0  0  0
    2.6664    0.1105    0.0000 C   0  0  0  0  0  0  0  0  0  0  0  0
    4.0954    0.1105    0.0000 N   0  0  0  0  0  0  0  0  0  0  0  0
    4.0954   -0.7145    0.0000 C   0  0  0  0  0  0  0  0  0  0  0  0
    4.8099   -1.1270    0.0000 C   0  0  0  0  0  0  0  0  0  0  0  0
    5.5243   -0.7145    0.0000 C   0  0  0  0  0  0  0  0  0  0  0  0
    6.2388   -1.1270    0.0000 C   0  0  0  0  0  0  0  0  0  0  0  0
    6.2388   -1.9520    0.0000 C   0  0  0  0  0  0  0  0  0  0  0  0
    5.5243   -2.3645    0.0000 C   0  0  0  0  0  0  0  0  0  0  0  0
    4.8099   -1.9520    0.0000 C   0  0  0  0  0  0  0  0  0  0  0  0
    4.0954   -2.3645    0.0000 N   0  0  0  0  0  0  0  0  0  0  0  0
    3.3809   -1.9520    0.0000 C   0  0  0  0  0  0  0  0  0  0  0  0
    3.3809   -1.1270    0.0000 N   0  0  0  0  0  0  0  0  0  0  0  0
    6.9533   -2.3645    0.0000 O   0  0  0  0  0  0  0  0  0  0  0  0
    7.3658   -3.0789    0.0000 C   0  0  0  0  0  0  0  0  0  0  0  0
    8.1908   -3.0789    0.0000 C   0  0  0  0  0  0  0  0  0  0  0  0
    8.6033   -2.3645    0.0000 O   0  0  0  0  0  0  0  0  0  0  0  0
    9.3177   -1.9520    0.0000 C   0  0  0  0  0  0  0  0  0  0  0  0
    9.3177   -1.1270    0.0000 C   0  0  0  0  0  0  0  0  0  0  0  0
    8.6033   -0.7145    0.0000 O   0  0  0  0  0  0  0  0  0  0  0  0
    8.1908    0.0000    0.0000 C   0  0  0  0  0  0  0  0  0  0  0  0
    7.3658    0.0000    0.0000 C   0  0  0  0  0  0  0  0  0  0  0  0
    6.9533   -0.7145    0.0000 O   0  0  0  0  0  0  0  0  0  0  0  0
    0.0000    0.0000    0.0000 H   0  0  0  0  0  0  0  0  0  0  0  0
    0.0000    0.0000    0.0000 H   0  0  0  0  0  0  0  0  0  0  0  0
    0.0000    0.0000    0.0000 H   0  0  0  0  0  0  0  0  0  0  0  0
    0.0000    0.0000    0.0000 H   0  0  0  0  0  0  0  0  0  0  0  0
    0.0000    0.0000    0.0000 H   0  0  0  0  0  0  0  0  0  0  0  0
    0.0000    0.0000    0.0000 H   0  0  0  0  0  0  0  0  0  0  0  0
    0.0000    0.0000    0.0000 H   0  0  0  0  0  0  0  0  0  0  0  0
    0.0000    0.0000    0.0000 H   0  0  0  0  0  0  0  0  0  0  0  0
    0.0000    0.0000    0.0000 H   0  0  0  0  0  0  0  0  0  0  0  0
    0.0000    0.0000    0.0000 H   0  0  0  0  0  0  0  0  0  0  0  0
    0.0000    0.0000    0.0000 H   0  0  0  0  0  0  0  0  0  0  0  0
    0.0000    0.0000    0.0000 H   0  0  0  0  0  0  0  0  0  0  0  0
    0.0000    0.0000    0.0000 H   0  0  0  0  0  0  0  0  0  0  0  0
    0.0000    0.0000    0.0000 H   0  0  0  0  0  0  0  0  0  0  0  0
    0.0000    0.0000    0.0000 H   0  0  0  0  0  0  0  0  0  0  0  0
    0.0000    0.0000    0.0000 H   0  0  0  0  0  0  0  0  0  0  0  0
    0.0000    0.0000    0.0000 H   0  0  0  0  0  0  0  0  0  0  0  0
    0.0000    0.0000    0.0000 H   0  0  0  0  0  0  0  0  0  0  0  0
    0.0000    0.0000    0.0000 H   0  0  0  0  0  0  0  0  0  0  0  0
    0.0000    0.0000    0.0000 H   0  0  0  0  0  0  0  0  0  0  0  0
    0.0000    0.0000    0.0000 H   0  0  0  0  0  0  0  0  0  0  0  0
  1  2  3  0
  2  3  1  0
  3  4  2  0
  4  5  1  0
  5  6  2  0
  6  7  1  0
  7  8  2  0
  3  8  1  0
  7  9  1  0
  9 10  1  0
 10 11  1  0
 11 12  2  0
 12 13  1  0
 13 14  2  0
 14 15  1  0
 15 16  2  0
 11 16  1  0
 16 17  1  0
 17 18  2  0
 18 19  1  0
 10 19  2  0
 14 20  1  0
 20 21  1  0
 21 22  1  0
 22 23  1  0
 23 24  1  0
 24 25  1  0
 25 26  1  0
 26 27  1  0
 27 28  1  0
 28 29  1  0
 13 29  1  0
  1 30  1  0
  4 31  1  0
  5 32  1  0
  6 33  1  0
  8 34  1  0
  9 35  1  0
 12 36  1  0
 15 37  1  0
 18 38  1  0
 21 39  1  0
 21 40  1  0
 22 41  1  0
 22 42  1  0
 24 43  1  0
 24 44  1  0
 25 45  1  0
 25 46  1  0
 27 47  1  0
 27 48  1  0
 28 49  1  0
 28 50  1  0
M  END
>  <ALOGPS_LOGP>  (1) 
2.88

>  <ALOGPS_LOGS>  (1) 
-4.49

>  <ALOGPS_SOLUBILITY>  (1) 
1.26e-02 g/l

>  <DATABASE_ID>  (1) 
DB11737

>  <DATABASE_NAME>  (1) 
drugbank

>  <DRUGBANK_ID>  (1) 
DB11737

>  <DRUG_GROUPS>  (1) 
approved; investigational

>  <EXACT_MASS>  (1) 
391.153206168

>  <FORMULA>  (1) 
C22H21N3O4

>  <GENERIC_NAME>  (1) 
Icotinib

>  <INCHI_IDENTIFIER>  (1) 
InChI=1S/C22H21N3O4/c1-2-16-4-3-5-17(12-16)25-22-18-13-20-21(14-19(18)23-15-24-22)29-11-9-27-7-6-26-8-10-28-20/h1,3-5,12-15H,6-11H2,(H,23,24,25)

>  <INCHI_KEY>  (1) 
QQLKULDARVNMAL-UHFFFAOYSA-N

>  <JCHEM_ACCEPTOR_COUNT>  (1) 
7

>  <JCHEM_ATOM_COUNT>  (1) 
50

>  <JCHEM_AVERAGE_POLARIZABILITY>  (1) 
42.07837581579879

>  <JCHEM_BIOAVAILABILITY>  (1) 
1

>  <JCHEM_DONOR_COUNT>  (1) 
1

>  <JCHEM_FORMAL_CHARGE>  (1) 
0

>  <JCHEM_GHOSE_FILTER>  (1) 
1

>  <JCHEM_IUPAC>  (1) 
N-(3-ethynylphenyl)-7H,8H,10H,11H,13H,14H-1,4,7,10-tetraoxacyclododeca[2,3-g]quinazolin-4-amine

>  <JCHEM_LOGP>  (1) 
3.0294626429999996

>  <JCHEM_MDDR_LIKE_RULE>  (1) 
0

>  <JCHEM_NUMBER_OF_RINGS>  (1) 
4

>  <JCHEM_PHYSIOLOGICAL_CHARGE>  (1) 
0

>  <JCHEM_PKA_STRONGEST_ACIDIC>  (1) 
16.143808147010805

>  <JCHEM_PKA_STRONGEST_BASIC>  (1) 
4.624278414231561

>  <JCHEM_POLAR_SURFACE_AREA>  (1) 
74.73000000000002

>  <JCHEM_REFRACTIVITY>  (1) 
105.81689999999999

>  <JCHEM_ROTATABLE_BOND_COUNT>  (1) 
2

>  <JCHEM_RULE_OF_FIVE>  (1) 
1

>  <JCHEM_TRADITIONAL_IUPAC>  (1) 
N-(3-ethynylphenyl)-7H,8H,10H,11H,13H,14H-1,4,7,10-tetraoxacyclododeca[2,3-g]quinazolin-4-amine

>  <JCHEM_VEBER_RULE>  (1) 
0

>  <MOLECULAR_WEIGHT>  (1) 
391.427

>  <SALTS>  (1) 
Icotinib hydrochloride

>  <SMILES>  (1) 
C#CC1=CC=CC(NC2=NC=NC3=CC4=C(OCCOCCOCCO4)C=C23)=C1

>  <SYNONYMS>  (1) 
BPI-2009

$$$$
