
     RDKit          2D

  2  1  0  0  0  0  0  0  0  0999 V2000
    0.4125    0.0000    0.0000 O   0  0  0  0  0  0  0  0  0  0  0  0
   -0.4125    0.0000    0.0000 C   0  0  0  0  0  0  0  0  0  0  0  0
  2  1  3  0
M  CHG  2   1   1   2  -1
M  END
>  <ALOGPS_LOGP>  (1) 
-0.06

>  <ALOGPS_LOGS>  (1) 
-1.11

>  <ALOGPS_SOLUBILITY>  (1) 
6.37e+00 g/l

>  <DATABASE_ID>  (1) 
DB11588

>  <DATABASE_NAME>  (1) 
drugbank

>  <DRUGBANK_ID>  (1) 
DB11588

>  <DRUG_GROUPS>  (1) 
approved

>  <EXACT_MASS>  (1) 
27.99491462

>  <FORMULA>  (1) 
CO

>  <GENERIC_NAME>  (1) 
Carbon monoxide

>  <INCHI_IDENTIFIER>  (1) 
InChI=1S/CO/c1-2

>  <INCHI_KEY>  (1) 
UGFAIRIUMAVXCW-UHFFFAOYSA-N

>  <JCHEM_ACCEPTOR_COUNT>  (1) 
0

>  <JCHEM_ATOM_COUNT>  (1) 
2

>  <JCHEM_AVERAGE_POLARIZABILITY>  (1) 
1.944703610827415

>  <JCHEM_BIOAVAILABILITY>  (1) 
1

>  <JCHEM_DONOR_COUNT>  (1) 
0

>  <JCHEM_FORMAL_CHARGE>  (1) 
0

>  <JCHEM_GHOSE_FILTER>  (1) 
0

>  <JCHEM_MDDR_LIKE_RULE>  (1) 
0

>  <JCHEM_NUMBER_OF_RINGS>  (1) 
0

>  <JCHEM_PHYSIOLOGICAL_CHARGE>  (1) 
0

>  <JCHEM_POLAR_SURFACE_AREA>  (1) 
0.0

>  <JCHEM_REFRACTIVITY>  (1) 
26.2298

>  <JCHEM_ROTATABLE_BOND_COUNT>  (1) 
0

>  <JCHEM_RULE_OF_FIVE>  (1) 
0

>  <JCHEM_VEBER_RULE>  (1) 
1

>  <MOLECULAR_WEIGHT>  (1) 
28.01

>  <PRODUCTS>  (1) 
Carbon Monox, Helium, Oxygen, Nitrogen L.D.M.; Carbon Monoxide, Compressed Air Medical G.M.; Co-HE-O2-N2 Mixture; Co-NE-O2-N2 Mixture; Lung Diffusion Test Mix No Ne Co; Lung Diffusion Test Mix Nohco; Lung Diffusion Test Mixture; Lung Diffusion Test Mixture Gas

>  <SMILES>  (1) 
[C-]#[O+]

>  <SYNONYMS>  (1) 
carbon(II) oxide; Carboneum oxygenisatum; CO

$$$$
