
     RDKit          2D

 76 83  0  0  0  0  0  0  0  0999 V2000
    6.6469   -4.7756    0.0000 C   0  0  0  0  0  0  0  0  0  0  0  0
    5.6694   -4.7659    0.0000 N   0  0  0  0  0  0  0  0  0  0  0  0
    7.0503   -4.0649    0.0000 C   0  0  0  0  0  0  0  0  0  0  0  0
    6.7693   -3.2601    0.0000 O   0  0  0  0  0  0  0  0  0  0  0  0
    7.8692   -4.0459    0.0000 N   0  0  0  0  0  0  0  0  0  0  0  0
    7.5613   -4.7659    0.0000 C   0  0  0  0  0  0  0  0  0  0  0  0
    7.1554   -5.4861    0.0000 C   0  0  0  0  0  0  0  0  0  0  0  0
    0.8243   -3.3477    0.0000 C   0  0  0  0  0  0  0  0  0  0  0  0
    0.4256   -4.0599    0.0000 C   0  0  0  0  0  0  0  0  0  0  0  0
    1.6619   -3.3432    0.0000 C   0  0  0  0  0  0  0  0  0  0  0  0
    2.0689   -2.6270    0.0000 C   0  0  0  0  0  0  0  0  0  0  0  0
    2.8808   -2.5715    0.0000 C   0  0  0  0  0  0  0  0  0  0  0  0
    3.4827   -2.0294    0.0000 N   0  0  0  0  0  0  0  0  0  0  0  0
    4.1543   -3.3485    0.0000 C   0  0  0  0  0  0  0  0  0  0  0  0
    3.3027   -3.3358    0.0000 C   0  0  0  0  0  0  0  0  0  0  0  0
    3.6706   -3.8606    0.0000 C   0  0  0  0  0  0  0  0  0  0  0  0
    4.0627   -2.6045    0.0000 C   0  0  0  0  0  0  0  0  0  0  0  0
    2.9176   -4.0689    0.0000 C   0  0  0  0  0  0  0  0  0  0  0  0
    3.2722   -4.7908    0.0000 C   0  0  0  0  0  0  0  0  0  0  0  0
    4.1572   -4.7768    0.0000 C   0  0  0  0  0  0  0  0  0  0  0  0
    4.5611   -4.0575    0.0000 C   0  0  0  0  0  0  0  0  0  0  0  0
    5.3602   -4.0601    0.0000 C   0  0  0  0  0  0  0  0  0  0  0  0
    5.7872   -3.3256    0.0000 O   0  0  0  0  0  0  0  0  0  0  0  0
    4.6677   -5.4861    0.0000 O   0  0  0  0  0  0  0  0  0  0  0  0
    2.0742   -4.0634    0.0000 C   0  0  0  0  0  0  0  0  0  0  0  0
    2.4616   -5.1457    0.0000 O   0  0  0  0  0  0  0  0  0  0  0  0
    1.6645   -4.7758    0.0000 C   0  0  0  0  0  0  0  0  0  0  0  0
    0.8343   -4.7819    0.0000 C   0  0  0  0  0  0  0  0  0  0  0  0
    0.2749   -5.4861    0.0000 O   0  0  0  0  0  0  0  0  0  0  0  0
    7.4500   -2.7758    0.0000 N   0  0  0  0  0  0  0  0  0  0  0  0
    8.1346   -3.2783    0.0000 C   0  0  0  0  0  0  0  0  0  0  0  0
    8.9358   -3.0040    0.0000 C   0  0  0  0  0  0  0  0  0  0  0  0
   10.4940   -2.5289    0.0000 C   0  0  0  0  0  0  0  0  0  0  0  0
    9.8739   -2.0081    0.0000 C   0  0  0  0  0  0  0  0  0  0  0  0
    9.5449   -3.5672    0.0000 C   0  0  0  0  0  0  0  0  0  0  0  0
   10.3251   -3.3033    0.0000 C   0  0  0  0  0  0  0  0  0  0  0  0
    3.4832   -1.2157    0.0000 C   0  0  0  0  0  0  0  0  0  0  0  0
    2.7495   -0.7946    0.0000 C   0  0  0  0  0  0  0  0  0  0  0  0
    1.9723   -0.7967    0.0000 C   0  0  0  0  0  0  0  0  0  0  0  0
    2.3620   -0.0994    0.0000 C   0  0  0  0  0  0  0  0  0  0  0  0
    9.0678   -2.2862    0.0000 C   0  0  0  0  0  0  0  0  0  0  0  0
    2.4777   -3.3358    0.0000 O   0  0  0  0  0  0  0  0  0  0  0  0
    0.0000    0.0000    0.0000 H   0  0  0  0  0  0  0  0  0  0  0  0
    0.0000    0.0000    0.0000 H   0  0  0  0  0  0  0  0  0  0  0  0
    0.0000    0.0000    0.0000 H   0  0  0  0  0  0  0  0  0  0  0  0
    0.0000    0.0000    0.0000 H   0  0  0  0  0  0  0  0  0  0  0  0
    0.0000    0.0000    0.0000 H   0  0  0  0  0  0  0  0  0  0  0  0
    0.0000    0.0000    0.0000 H   0  0  0  0  0  0  0  0  0  0  0  0
    0.0000    0.0000    0.0000 H   0  0  0  0  0  0  0  0  0  0  0  0
    0.0000    0.0000    0.0000 H   0  0  0  0  0  0  0  0  0  0  0  0
    0.0000    0.0000    0.0000 H   0  0  0  0  0  0  0  0  0  0  0  0
    0.0000    0.0000    0.0000 H   0  0  0  0  0  0  0  0  0  0  0  0
    0.0000    0.0000    0.0000 H   0  0  0  0  0  0  0  0  0  0  0  0
    0.0000    0.0000    0.0000 H   0  0  0  0  0  0  0  0  0  0  0  0
    0.0000    0.0000    0.0000 H   0  0  0  0  0  0  0  0  0  0  0  0
    0.0000    0.0000    0.0000 H   0  0  0  0  0  0  0  0  0  0  0  0
    0.0000    0.0000    0.0000 H   0  0  0  0  0  0  0  0  0  0  0  0
    0.0000    0.0000    0.0000 H   0  0  0  0  0  0  0  0  0  0  0  0
    0.0000    0.0000    0.0000 H   0  0  0  0  0  0  0  0  0  0  0  0
    0.0000    0.0000    0.0000 H   0  0  0  0  0  0  0  0  0  0  0  0
    0.0000    0.0000    0.0000 H   0  0  0  0  0  0  0  0  0  0  0  0
    0.0000    0.0000    0.0000 H   0  0  0  0  0  0  0  0  0  0  0  0
    0.0000    0.0000    0.0000 H   0  0  0  0  0  0  0  0  0  0  0  0
    0.0000    0.0000    0.0000 H   0  0  0  0  0  0  0  0  0  0  0  0
    0.0000    0.0000    0.0000 H   0  0  0  0  0  0  0  0  0  0  0  0
    0.0000    0.0000    0.0000 H   0  0  0  0  0  0  0  0  0  0  0  0
    0.0000    0.0000    0.0000 H   0  0  0  0  0  0  0  0  0  0  0  0
    0.0000    0.0000    0.0000 H   0  0  0  0  0  0  0  0  0  0  0  0
    0.0000    0.0000    0.0000 H   0  0  0  0  0  0  0  0  0  0  0  0
    0.0000    0.0000    0.0000 H   0  0  0  0  0  0  0  0  0  0  0  0
    0.0000    0.0000    0.0000 H   0  0  0  0  0  0  0  0  0  0  0  0
    0.0000    0.0000    0.0000 H   0  0  0  0  0  0  0  0  0  0  0  0
    0.0000    0.0000    0.0000 H   0  0  0  0  0  0  0  0  0  0  0  0
    0.0000    0.0000    0.0000 H   0  0  0  0  0  0  0  0  0  0  0  0
    0.0000    0.0000    0.0000 H   0  0  0  0  0  0  0  0  0  0  0  0
    0.0000    0.0000    0.0000 H   0  0  0  0  0  0  0  0  0  0  0  0
  1  2  1  0
  1  3  1  0
  1  6  1  0
  2 22  1  0
  3  5  2  0
  4  3  1  0
  4 30  1  0
  7  1  1  0
  8  9  2  0
  8 10  1  0
  9 28  1  0
 10 11  1  0
 10 25  2  0
 11 12  1  0
 12 13  1  0
 13 37  1  0
 14 15  1  0
 15 12  1  0
 16 17  1  0
 18 16  1  1
 18 19  1  0
 18 15  1  0
 19 20  1  0
 19 26  1  0
 20 21  2  0
 21 14  1  0
 21 22  1  0
 22 23  2  0
 24 20  1  0
 25 18  1  0
 26 27  1  0
 27 25  1  0
 28 27  2  0
 28 29  1  0
 30 31  2  0
 31 32  1  0
 31  5  1  0
 32 35  1  0
 32 41  2  0
 33 34  2  0
 35 36  2  0
 36 33  1  0
 37 38  1  0
 39 40  1  0
 39 38  1  0
 40 38  1  0
 41 34  1  0
 13 17  1  0
 15 42  1  1
  2 43  1  0
  6 44  1  0
  6 45  1  0
  6 46  1  0
  7 47  1  0
  7 48  1  0
  7 49  1  0
  8 50  1  0
  9 51  1  0
 11 52  1  0
 11 53  1  0
 12 54  1  6
 14 55  1  0
 14 56  1  0
 16 57  1  0
 16 58  1  0
 17 59  1  0
 17 60  1  0
 19 61  1  1
 24 62  1  0
 29 63  1  0
 33 64  1  0
 34 65  1  0
 35 66  1  0
 36 67  1  0
 37 68  1  0
 37 69  1  0
 38 70  1  0
 39 71  1  0
 39 72  1  0
 40 73  1  0
 40 74  1  0
 41 75  1  0
 42 76  1  0
M  END
>  <ALOGPS_LOGP>  (1) 
3.14

>  <ALOGPS_LOGS>  (1) 
-3.40

>  <ALOGPS_SOLUBILITY>  (1) 
2.27e-01 g/l

>  <DATABASE_ID>  (1) 
DB11691

>  <DATABASE_NAME>  (1) 
drugbank

>  <DRUGBANK_ID>  (1) 
DB11691

>  <DRUG_GROUPS>  (1) 
approved

>  <EXACT_MASS>  (1) 
570.247834831

>  <FORMULA>  (1) 
C32H34N4O6

>  <GENERIC_NAME>  (1) 
Naldemedine

>  <INCHI_IDENTIFIER>  (1) 
InChI=1S/C32H34N4O6/c1-30(2,29-33-27(35-42-29)18-6-4-3-5-7-18)34-28(39)20-15-32(40)22-14-19-10-11-21(37)25-23(19)31(32,26(41-25)24(20)38)12-13-36(22)16-17-8-9-17/h3-7,10-11,17,22,26,37-38,40H,8-9,12-16H2,1-2H3,(H,34,39)/t22-,26+,31+,32-/m1/s1

>  <INCHI_KEY>  (1) 
AXQACEQYCPKDMV-RZAWKFBISA-N

>  <JCHEM_ACCEPTOR_COUNT>  (1) 
8

>  <JCHEM_ATOM_COUNT>  (1) 
76

>  <JCHEM_AVERAGE_POLARIZABILITY>  (1) 
61.3439354628904

>  <JCHEM_BIOAVAILABILITY>  (1) 
1

>  <JCHEM_DONOR_COUNT>  (1) 
4

>  <JCHEM_FORMAL_CHARGE>  (1) 
0

>  <JCHEM_GHOSE_FILTER>  (1) 
0

>  <JCHEM_IUPAC>  (1) 
(1S,5R,13R,17S)-4-(cyclopropylmethyl)-10,14,17-trihydroxy-N-[2-(3-phenyl-1,2,4-oxadiazol-5-yl)propan-2-yl]-12-oxa-4-azapentacyclo[9.6.1.0^{1,13}.0^{5,17}.0^{7,18}]octadeca-7,9,11(18),14-tetraene-15-carboxamide

>  <JCHEM_LOGP>  (1) 
2.4256560882356637

>  <JCHEM_MDDR_LIKE_RULE>  (1) 
1

>  <JCHEM_NUMBER_OF_RINGS>  (1) 
8

>  <JCHEM_PHYSIOLOGICAL_CHARGE>  (1) 
1

>  <JCHEM_PKA>  (1) 
10.4436482239588

>  <JCHEM_PKA_STRONGEST_ACIDIC>  (1) 
9.85641313843716

>  <JCHEM_PKA_STRONGEST_BASIC>  (1) 
9.05279920654814

>  <JCHEM_POLAR_SURFACE_AREA>  (1) 
141.18

>  <JCHEM_REFRACTIVITY>  (1) 
165.78439999999992

>  <JCHEM_ROTATABLE_BOND_COUNT>  (1) 
6

>  <JCHEM_RULE_OF_FIVE>  (1) 
0

>  <JCHEM_TRADITIONAL_IUPAC>  (1) 
(1S,5R,13R,17S)-4-(cyclopropylmethyl)-10,14,17-trihydroxy-N-[2-(3-phenyl-1,2,4-oxadiazol-5-yl)propan-2-yl]-12-oxa-4-azapentacyclo[9.6.1.0^{1,13}.0^{5,17}.0^{7,18}]octadeca-7,9,11(18),14-tetraene-15-carboxamide

>  <JCHEM_VEBER_RULE>  (1) 
0

>  <MOLECULAR_WEIGHT>  (1) 
570.646

>  <PRODUCTS>  (1) 
Symproic

>  <SALTS>  (1) 
Naldemedine tosylate

>  <SMILES>  (1) 
[H][C@@]12OC3=C4C(C[C@@]5([H])N(CC6CC6)CC[C@@]14[C@@]5(O)CC(C(=O)NC(C)(C)C1=NC(=NO1)C1=CC=CC=C1)=C2O)=CC=C3O

$$$$
