
     RDKit          2D

 56 60  0  0  0  0  0  0  0  0999 V2000
   -0.0203    8.0169    0.0000 C   0  0  0  0  0  0  0  0  0  0  0  0
   -0.9113    1.3976    0.0000 C   0  0  0  0  0  0  0  0  0  0  0  0
   -0.3065    0.8365    0.0000 C   0  0  0  0  0  0  0  0  0  0  0  0
    0.9962    0.4346    0.0000 C   0  0  0  0  0  0  0  0  0  0  0  0
    1.8212    0.4346    0.0000 C   0  0  0  0  0  0  0  0  0  0  0  0
    3.5451    2.2019    0.0000 C   0  0  0  0  0  0  0  0  0  0  0  0
    2.7568    2.4451    0.0000 C   0  0  0  0  0  0  0  0  0  0  0  0
    2.1232    3.4794    0.0000 C   0  0  0  0  0  0  0  0  0  0  0  0
    0.6942    3.4794    0.0000 C   0  0  0  0  0  0  0  0  0  0  0  0
   -0.7277    2.2019    0.0000 C   0  0  0  0  0  0  0  0  0  0  0  0
    2.1232    4.3044    0.0000 C   0  0  0  0  0  0  0  0  0  0  0  0
    0.6942    4.3044    0.0000 C   0  0  0  0  0  0  0  0  0  0  0  0
    0.6942    6.7794    0.0000 C   0  0  0  0  0  0  0  0  0  0  0  0
    3.1239    0.8365    0.0000 C   0  0  0  0  0  0  0  0  0  0  0  0
   -0.7347    6.7794    0.0000 C   0  0  0  0  0  0  0  0  0  0  0  0
   -0.0203    5.5419    0.0000 C   0  0  0  0  0  0  0  0  0  0  0  0
    1.4087    5.5419    0.0000 C   0  0  0  0  0  0  0  0  0  0  0  0
   -0.0203    7.1919    0.0000 C   0  0  0  0  0  0  0  0  0  0  0  0
    0.6942    5.9544    0.0000 C   0  0  0  0  0  0  0  0  0  0  0  0
    1.4087    3.0669    0.0000 C   0  0  0  0  0  0  0  0  0  0  0  0
    0.4818    1.0796    0.0000 C   0  0  0  0  0  0  0  0  0  0  0  0
    2.3356    1.0796    0.0000 C   0  0  0  0  0  0  0  0  0  0  0  0
    3.7287    1.3976    0.0000 C   0  0  0  0  0  0  0  0  0  0  0  0
    2.1520    1.8840    0.0000 C   0  0  0  0  0  0  0  0  0  0  0  0
    1.4087    2.2419    0.0000 C   0  0  0  0  0  0  0  0  0  0  0  0
    0.6654    1.8840    0.0000 C   0  0  0  0  0  0  0  0  0  0  0  0
    4.5170    1.1544    0.0000 Cl  0  0  0  0  0  0  0  0  0  0  0  0
   -0.7347    5.9544    0.0000 N   0  0  0  0  0  0  0  0  0  0  0  0
    0.0606    2.4451    0.0000 N   0  0  0  0  0  0  0  0  0  0  0  0
    1.4087    4.7169    0.0000 N   0  0  0  0  0  0  0  0  0  0  0  0
    0.0000    0.0000    0.0000 H   0  0  0  0  0  0  0  0  0  0  0  0
    0.0000    0.0000    0.0000 H   0  0  0  0  0  0  0  0  0  0  0  0
    0.0000    0.0000    0.0000 H   0  0  0  0  0  0  0  0  0  0  0  0
    0.0000    0.0000    0.0000 H   0  0  0  0  0  0  0  0  0  0  0  0
    0.0000    0.0000    0.0000 H   0  0  0  0  0  0  0  0  0  0  0  0
    0.0000    0.0000    0.0000 H   0  0  0  0  0  0  0  0  0  0  0  0
    0.0000    0.0000    0.0000 H   0  0  0  0  0  0  0  0  0  0  0  0
    0.0000    0.0000    0.0000 H   0  0  0  0  0  0  0  0  0  0  0  0
    0.0000    0.0000    0.0000 H   0  0  0  0  0  0  0  0  0  0  0  0
    0.0000    0.0000    0.0000 H   0  0  0  0  0  0  0  0  0  0  0  0
    0.0000    0.0000    0.0000 H   0  0  0  0  0  0  0  0  0  0  0  0
    0.0000    0.0000    0.0000 H   0  0  0  0  0  0  0  0  0  0  0  0
    0.0000    0.0000    0.0000 H   0  0  0  0  0  0  0  0  0  0  0  0
    0.0000    0.0000    0.0000 H   0  0  0  0  0  0  0  0  0  0  0  0
    0.0000    0.0000    0.0000 H   0  0  0  0  0  0  0  0  0  0  0  0
    0.0000    0.0000    0.0000 H   0  0  0  0  0  0  0  0  0  0  0  0
    0.0000    0.0000    0.0000 H   0  0  0  0  0  0  0  0  0  0  0  0
    0.0000    0.0000    0.0000 H   0  0  0  0  0  0  0  0  0  0  0  0
    0.0000    0.0000    0.0000 H   0  0  0  0  0  0  0  0  0  0  0  0
    0.0000    0.0000    0.0000 H   0  0  0  0  0  0  0  0  0  0  0  0
    0.0000    0.0000    0.0000 H   0  0  0  0  0  0  0  0  0  0  0  0
    0.0000    0.0000    0.0000 H   0  0  0  0  0  0  0  0  0  0  0  0
    0.0000    0.0000    0.0000 H   0  0  0  0  0  0  0  0  0  0  0  0
    0.0000    0.0000    0.0000 H   0  0  0  0  0  0  0  0  0  0  0  0
    0.0000    0.0000    0.0000 H   0  0  0  0  0  0  0  0  0  0  0  0
    0.0000    0.0000    0.0000 H   0  0  0  0  0  0  0  0  0  0  0  0
  3  2  2  0
  5  4  1  0
  7  6  1  0
 10  2  1  0
 11  8  1  0
 12  9  1  0
 18  1  1  0
 18 13  2  0
 18 15  1  0
 19 13  1  0
 19 16  2  0
 19 17  1  0
 20  8  1  0
 20  9  1  0
 21  3  1  0
 21  4  1  0
 22  5  1  0
 22 14  2  0
 23  6  2  0
 23 14  1  0
 24  7  2  0
 24 22  1  0
 25 20  2  3
 25 24  1  0
 26 21  2  0
 26 25  1  0
 27 23  1  0
 28 15  2  0
 28 16  1  0
 29 10  2  0
 29 26  1  0
 30 11  1  0
 30 12  1  0
 30 17  1  0
  1 31  1  0
  1 32  1  0
  1 33  1  0
  2 34  1  0
  3 35  1  0
  4 36  1  0
  4 37  1  0
  5 38  1  0
  5 39  1  0
  6 40  1  0
  7 41  1  0
  8 42  1  0
  8 43  1  0
  9 44  1  0
  9 45  1  0
 10 46  1  0
 11 47  1  0
 11 48  1  0
 12 49  1  0
 12 50  1  0
 13 51  1  0
 14 52  1  0
 15 53  1  0
 16 54  1  0
 17 55  1  0
 17 56  1  0
M  END
>  <ALOGPS_LOGP>  (1) 
4.82

>  <ALOGPS_LOGS>  (1) 
-4.88

>  <ALOGPS_SOLUBILITY>  (1) 
5.44e-03 g/l

>  <DATABASE_ID>  (1) 
DB11614

>  <DATABASE_NAME>  (1) 
drugbank

>  <DRUGBANK_ID>  (1) 
DB11614

>  <DRUG_GROUPS>  (1) 
approved

>  <EXACT_MASS>  (1) 
415.1815255

>  <FORMULA>  (1) 
C26H26ClN3

>  <GENERIC_NAME>  (1) 
Rupatadine

>  <INCHI_IDENTIFIER>  (1) 
InChI=1S/C26H26ClN3/c1-18-13-19(16-28-15-18)17-30-11-8-20(9-12-30)25-24-7-6-23(27)14-22(24)5-4-21-3-2-10-29-26(21)25/h2-3,6-7,10,13-16H,4-5,8-9,11-12,17H2,1H3

>  <INCHI_KEY>  (1) 
WUZYKBABMWJHDL-UHFFFAOYSA-N

>  <JCHEM_ACCEPTOR_COUNT>  (1) 
3

>  <JCHEM_ATOM_COUNT>  (1) 
56

>  <JCHEM_AVERAGE_POLARIZABILITY>  (1) 
46.978413990207756

>  <JCHEM_BIOAVAILABILITY>  (1) 
1

>  <JCHEM_DONOR_COUNT>  (1) 
0

>  <JCHEM_FORMAL_CHARGE>  (1) 
0

>  <JCHEM_GHOSE_FILTER>  (1) 
0

>  <JCHEM_IUPAC>  (1) 
13-chloro-2-{1-[(5-methylpyridin-3-yl)methyl]piperidin-4-ylidene}-4-azatricyclo[9.4.0.0^{3,8}]pentadeca-1(15),3(8),4,6,11,13-hexaene

>  <JCHEM_LOGP>  (1) 
5.371807958333333

>  <JCHEM_MDDR_LIKE_RULE>  (1) 
0

>  <JCHEM_NUMBER_OF_RINGS>  (1) 
5

>  <JCHEM_PHYSIOLOGICAL_CHARGE>  (1) 
1

>  <JCHEM_PKA_STRONGEST_BASIC>  (1) 
7.188831095123943

>  <JCHEM_POLAR_SURFACE_AREA>  (1) 
29.020000000000003

>  <JCHEM_REFRACTIVITY>  (1) 
133.83039999999997

>  <JCHEM_ROTATABLE_BOND_COUNT>  (1) 
2

>  <JCHEM_RULE_OF_FIVE>  (1) 
0

>  <JCHEM_TRADITIONAL_IUPAC>  (1) 
13-chloro-2-{1-[(5-methylpyridin-3-yl)methyl]piperidin-4-ylidene}-4-azatricyclo[9.4.0.0^{3,8}]pentadeca-1(15),3(8),4,6,11,13-hexaene

>  <JCHEM_VEBER_RULE>  (1) 
1

>  <MOLECULAR_WEIGHT>  (1) 
415.97

>  <PRODUCTS>  (1) 
Rupall

>  <SALTS>  (1) 
Rupatadine fumarate; Rupatadine trihydrochloride

>  <SMILES>  (1) 
CC1=CC(CN2CCC(CC2)=C2C3=CC=C(Cl)C=C3CCC3=C2N=CC=C3)=CN=C1

$$$$
