
     RDKit          2D

 68 69  0  0  0  0  0  0  0  0999 V2000
   -4.2622    1.0099    0.0000 C   0  0  0  0  0  0  0  0  0  0  0  0
   -2.1188    2.2474    0.0000 C   0  0  0  0  0  0  0  0  0  0  0  0
    2.1680    2.2474    0.0000 C   0  0  0  0  0  0  0  0  0  0  0  0
    3.5970   -0.2276    0.0000 C   0  0  0  0  0  0  0  0  0  0  0  0
   -3.5477    0.5974    0.0000 C   0  0  0  0  0  0  0  0  0  0  0  0
   -2.8332    1.8349    0.0000 C   0  0  0  0  0  0  0  0  0  0  0  0
    2.8825    1.8349    0.0000 C   0  0  0  0  0  0  0  0  0  0  0  0
    3.5970    0.5974    0.0000 C   0  0  0  0  0  0  0  0  0  0  0  0
    0.0246   -3.1151    0.0000 C   0  0  0  0  0  0  0  0  0  0  0  0
    0.7391   -2.7026    0.0000 C   0  0  0  0  0  0  0  0  0  0  0  0
   -0.6898   -2.7026    0.0000 C   0  0  0  0  0  0  0  0  0  0  0  0
    0.7391   -1.8776    0.0000 C   0  0  0  0  0  0  0  0  0  0  0  0
   -0.6898   -1.8776    0.0000 C   0  0  0  0  0  0  0  0  0  0  0  0
   -0.6898    0.5974    0.0000 C   0  0  0  0  0  0  0  0  0  0  0  0
   -1.4043   -0.6401    0.0000 C   0  0  0  0  0  0  0  0  0  0  0  0
    1.4536   -0.6401    0.0000 C   0  0  0  0  0  0  0  0  0  0  0  0
    0.7391    0.5974    0.0000 C   0  0  0  0  0  0  0  0  0  0  0  0
   -1.4043    1.0099    0.0000 C   0  0  0  0  0  0  0  0  0  0  0  0
   -2.1188   -0.2276    0.0000 C   0  0  0  0  0  0  0  0  0  0  0  0
    2.1680   -0.2276    0.0000 C   0  0  0  0  0  0  0  0  0  0  0  0
    1.4536    1.0099    0.0000 C   0  0  0  0  0  0  0  0  0  0  0  0
    0.0246   -1.4651    0.0000 C   0  0  0  0  0  0  0  0  0  0  0  0
   -0.6898   -0.2276    0.0000 C   0  0  0  0  0  0  0  0  0  0  0  0
    0.7391   -0.2276    0.0000 C   0  0  0  0  0  0  0  0  0  0  0  0
   -2.1188    0.5974    0.0000 C   0  0  0  0  0  0  0  0  0  0  0  0
    2.1680    0.5974    0.0000 C   0  0  0  0  0  0  0  0  0  0  0  0
    0.0246   -0.6401    0.0000 C   0  0  0  0  0  0  0  0  0  0  0  0
   -2.8332    1.0099    0.0000 N   0  0  0  0  0  0  0  0  0  0  0  0
    2.8825    1.0099    0.0000 N   0  0  0  0  0  0  0  0  0  0  0  0
    6.1898    0.8250    0.0000 O   0  0  0  0  0  0  0  0  0  0  0  0
    6.1898   -0.8250    0.0000 O   0  0  0  0  0  0  0  0  0  0  0  0
    5.3648    0.0000    0.0000 O   0  0  0  0  0  0  0  0  0  0  0  0
    7.0148   -0.0000    0.0000 O   0  0  0  0  0  0  0  0  0  0  0  0
    6.1898   -0.0000    0.0000 S   0  0  0  0  0  0  0  0  0  0  0  0
    0.0000    0.0000    0.0000 H   0  0  0  0  0  0  0  0  0  0  0  0
    0.0000    0.0000    0.0000 H   0  0  0  0  0  0  0  0  0  0  0  0
    0.0000    0.0000    0.0000 H   0  0  0  0  0  0  0  0  0  0  0  0
    0.0000    0.0000    0.0000 H   0  0  0  0  0  0  0  0  0  0  0  0
    0.0000    0.0000    0.0000 H   0  0  0  0  0  0  0  0  0  0  0  0
    0.0000    0.0000    0.0000 H   0  0  0  0  0  0  0  0  0  0  0  0
    0.0000    0.0000    0.0000 H   0  0  0  0  0  0  0  0  0  0  0  0
    0.0000    0.0000    0.0000 H   0  0  0  0  0  0  0  0  0  0  0  0
    0.0000    0.0000    0.0000 H   0  0  0  0  0  0  0  0  0  0  0  0
    0.0000    0.0000    0.0000 H   0  0  0  0  0  0  0  0  0  0  0  0
    0.0000    0.0000    0.0000 H   0  0  0  0  0  0  0  0  0  0  0  0
    0.0000    0.0000    0.0000 H   0  0  0  0  0  0  0  0  0  0  0  0
    0.0000    0.0000    0.0000 H   0  0  0  0  0  0  0  0  0  0  0  0
    0.0000    0.0000    0.0000 H   0  0  0  0  0  0  0  0  0  0  0  0
    0.0000    0.0000    0.0000 H   0  0  0  0  0  0  0  0  0  0  0  0
    0.0000    0.0000    0.0000 H   0  0  0  0  0  0  0  0  0  0  0  0
    0.0000    0.0000    0.0000 H   0  0  0  0  0  0  0  0  0  0  0  0
    0.0000    0.0000    0.0000 H   0  0  0  0  0  0  0  0  0  0  0  0
    0.0000    0.0000    0.0000 H   0  0  0  0  0  0  0  0  0  0  0  0
    0.0000    0.0000    0.0000 H   0  0  0  0  0  0  0  0  0  0  0  0
    0.0000    0.0000    0.0000 H   0  0  0  0  0  0  0  0  0  0  0  0
    0.0000    0.0000    0.0000 H   0  0  0  0  0  0  0  0  0  0  0  0
    0.0000    0.0000    0.0000 H   0  0  0  0  0  0  0  0  0  0  0  0
    0.0000    0.0000    0.0000 H   0  0  0  0  0  0  0  0  0  0  0  0
    0.0000    0.0000    0.0000 H   0  0  0  0  0  0  0  0  0  0  0  0
    0.0000    0.0000    0.0000 H   0  0  0  0  0  0  0  0  0  0  0  0
    0.0000    0.0000    0.0000 H   0  0  0  0  0  0  0  0  0  0  0  0
    0.0000    0.0000    0.0000 H   0  0  0  0  0  0  0  0  0  0  0  0
    0.0000    0.0000    0.0000 H   0  0  0  0  0  0  0  0  0  0  0  0
    0.0000    0.0000    0.0000 H   0  0  0  0  0  0  0  0  0  0  0  0
    0.0000    0.0000    0.0000 H   0  0  0  0  0  0  0  0  0  0  0  0
    0.0000    0.0000    0.0000 H   0  0  0  0  0  0  0  0  0  0  0  0
    0.0000    0.0000    0.0000 H   0  0  0  0  0  0  0  0  0  0  0  0
    0.0000    0.0000    0.0000 H   0  0  0  0  0  0  0  0  0  0  0  0
  5  1  1  0
  6  2  1  0
  7  3  1  0
  8  4  1  0
 10  9  2  0
 11  9  1  0
 12 10  1  0
 13 11  2  0
 18 14  2  0
 19 15  2  0
 20 16  2  0
 21 17  1  0
 22 12  2  0
 22 13  1  0
 23 14  1  0
 23 15  1  0
 24 16  1  0
 24 17  2  0
 25 18  1  0
 25 19  1  0
 26 20  1  0
 26 21  2  0
 27 22  1  0
 27 23  2  3
 27 24  1  0
 28  5  1  0
 28  6  1  0
 28 25  2  3
 29  7  1  0
 29  8  1  0
 29 26  1  0
 34 30  1  0
 34 31  1  0
 34 32  2  0
 34 33  2  0
  1 35  1  0
  1 36  1  0
  1 37  1  0
  2 38  1  0
  2 39  1  0
  2 40  1  0
  3 41  1  0
  3 42  1  0
  3 43  1  0
  4 44  1  0
  4 45  1  0
  4 46  1  0
  5 47  1  0
  5 48  1  0
  6 49  1  0
  6 50  1  0
  7 51  1  0
  7 52  1  0
  8 53  1  0
  8 54  1  0
  9 55  1  0
 10 56  1  0
 11 57  1  0
 12 58  1  0
 13 59  1  0
 14 60  1  0
 15 61  1  0
 16 62  1  0
 17 63  1  0
 18 64  1  0
 19 65  1  0
 20 66  1  0
 21 67  1  0
 31 68  1  0
M  CHG  2  28   1  30  -1
M  END
>  <ALOGPS_LOGP>  (1) 
2.79

>  <ALOGPS_LOGS>  (1) 
-6.14

>  <ALOGPS_SOLUBILITY>  (1) 
3.48e-04 g/l

>  <DATABASE_ID>  (1) 
DB11279

>  <DATABASE_NAME>  (1) 
drugbank

>  <DRUGBANK_ID>  (1) 
DB11279

>  <DRUG_GROUPS>  (1) 
approved; vet_approved

>  <EXACT_MASS>  (1) 
482.223928757

>  <FORMULA>  (1) 
C27H34N2O4S

>  <GENERIC_NAME>  (1) 
Brilliant green

>  <INCHI_IDENTIFIER>  (1) 
InChI=1S/C27H33N2.H2O4S/c1-5-28(6-2)25-18-14-23(15-19-25)27(22-12-10-9-11-13-22)24-16-20-26(21-17-24)29(7-3)8-4;1-5(2,3)4/h9-21H,5-8H2,1-4H3;(H2,1,2,3,4)/q+1;/p-1

>  <INCHI_KEY>  (1) 
NNBFNNNWANBMTI-UHFFFAOYSA-M

>  <JCHEM_ACCEPTOR_COUNT>  (1) 
1

>  <JCHEM_ATOM_COUNT>  (1) 
68

>  <JCHEM_AVERAGE_POLARIZABILITY>  (1) 
47.02039397710156

>  <JCHEM_BIOAVAILABILITY>  (1) 
1

>  <JCHEM_DONOR_COUNT>  (1) 
0

>  <JCHEM_FORMAL_CHARGE>  (1) 
0

>  <JCHEM_GHOSE_FILTER>  (1) 
0

>  <JCHEM_IUPAC>  (1) 
4-{[4-(diethylamino)phenyl](phenyl)methylidene}-N,N-diethylcyclohexa-2,5-dien-1-iminium hydrogen sulfate

>  <JCHEM_LOGP>  (1) 
2.714699088861588

>  <JCHEM_MDDR_LIKE_RULE>  (1) 
1

>  <JCHEM_NUMBER_OF_RINGS>  (1) 
3

>  <JCHEM_PHYSIOLOGICAL_CHARGE>  (1) 
1

>  <JCHEM_PKA_STRONGEST_BASIC>  (1) 
5.3601718248964225

>  <JCHEM_POLAR_SURFACE_AREA>  (1) 
6.25

>  <JCHEM_REFRACTIVITY>  (1) 
150.5697

>  <JCHEM_ROTATABLE_BOND_COUNT>  (1) 
7

>  <JCHEM_RULE_OF_FIVE>  (1) 
1

>  <JCHEM_TRADITIONAL_IUPAC>  (1) 
4-{[4-(diethylamino)phenyl](phenyl)methylidene}-N,N-diethylcyclohexa-2,5-dien-1-iminium hydrogen sulfate

>  <JCHEM_VEBER_RULE>  (1) 
1

>  <MOLECULAR_WEIGHT>  (1) 
482.64

>  <PRODUCTS>  (1) 
Kerr 100 Triple Dye Dispos-A; Perineze Triple Dye; Triple Dye

>  <SMILES>  (1) 
OS([O-])(=O)=O.CCN(CC)C1=CC=C(C=C1)C(C1=CC=CC=C1)=C1C=CC(C=C1)=[N+](CC)CC

>  <SYNONYMS>  (1) 
Basic Bright Green; Brilliant green CI 42040; Ethanaminium

$$$$
