
     RDKit          2D

  3  0  0  0  0  0  0  0  0  0999 V2000
    0.4125    0.0000    0.0000 Na  0  0  0  0  0  0  0  0  0  0  0  0
    2.7696    0.0000    0.0000 Na  0  0  0  0  0  0  0  0  0  0  0  0
   -0.4125    0.0000    0.0000 S   0  0  0  0  0  0  0  0  0  0  0  0
M  CHG  3   1   1   2   1   3  -2
M  END
>  <DATABASE_ID>  (1) 
DB11159

>  <DATABASE_NAME>  (1) 
drugbank

>  <DRUGBANK_ID>  (1) 
DB11159

>  <DRUG_GROUPS>  (1) 
approved

>  <EXACT_MASS>  (1) 
77.95160973

>  <FORMULA>  (1) 
Na2S

>  <GENERIC_NAME>  (1) 
Sodium sulfide

>  <INCHI_IDENTIFIER>  (1) 
InChI=1S/2Na.S/q2*+1;-2

>  <INCHI_KEY>  (1) 
GRVFOGOEDUUMBP-UHFFFAOYSA-N

>  <JCHEM_ACCEPTOR_COUNT>  (1) 
0

>  <JCHEM_ATOM_COUNT>  (1) 
3

>  <JCHEM_AVERAGE_POLARIZABILITY>  (1) 
1.7784

>  <JCHEM_BIOAVAILABILITY>  (1) 
1

>  <JCHEM_DONOR_COUNT>  (1) 
0

>  <JCHEM_FORMAL_CHARGE>  (1) 
0

>  <JCHEM_GHOSE_FILTER>  (1) 
0

>  <JCHEM_IUPAC>  (1) 
disodium sulfanediide

>  <JCHEM_LOGP>  (1) 
-0.77

>  <JCHEM_MDDR_LIKE_RULE>  (1) 
0

>  <JCHEM_NUMBER_OF_RINGS>  (1) 
0

>  <JCHEM_PHYSIOLOGICAL_CHARGE>  (1) 
1

>  <JCHEM_PKA>  (1) 
3.55

>  <JCHEM_PKA_STRONGEST_ACIDIC>  (1) 
3.09

>  <JCHEM_POLAR_SURFACE_AREA>  (1) 
0.0

>  <JCHEM_REFRACTIVITY>  (1) 
0.0

>  <JCHEM_ROTATABLE_BOND_COUNT>  (1) 
0

>  <JCHEM_RULE_OF_FIVE>  (1) 
1

>  <JCHEM_TRADITIONAL_IUPAC>  (1) 
disodium sulfanediide

>  <JCHEM_VEBER_RULE>  (1) 
1

>  <MOLECULAR_WEIGHT>  (1) 
78.04

>  <PRODUCTS>  (1) 
Dr. Scholls Ingrown Toenail Pain Reliever; Sodium Sufide

>  <SMILES>  (1) 
[Na+].[Na+].[S--]

$$$$
