
     RDKit          2D

 33 34  0  0  0  0  0  0  0  0999 V2000
   -3.5724    2.0625    0.0000 C   0  0  0  0  0  0  0  0  0  0  0  0
   -0.7145   -2.8875    0.0000 C   0  0  0  0  0  0  0  0  0  0  0  0
    0.0000   -2.4750    0.0000 C   0  0  0  0  0  0  0  0  0  0  0  0
   -1.4289   -2.4750    0.0000 C   0  0  0  0  0  0  0  0  0  0  0  0
    0.0000   -1.6500    0.0000 C   0  0  0  0  0  0  0  0  0  0  0  0
   -1.4289   -1.6500    0.0000 C   0  0  0  0  0  0  0  0  0  0  0  0
   -2.1434   -0.4125    0.0000 C   0  0  0  0  0  0  0  0  0  0  0  0
   -2.1434    1.2375    0.0000 C   0  0  0  0  0  0  0  0  0  0  0  0
   -0.7145   -1.2375    0.0000 C   0  0  0  0  0  0  0  0  0  0  0  0
   -1.4289   -0.0000    0.0000 C   0  0  0  0  0  0  0  0  0  0  0  0
   -1.4289    0.8250    0.0000 C   0  0  0  0  0  0  0  0  0  0  0  0
   -2.8579    0.8250    0.0000 C   0  0  0  0  0  0  0  0  0  0  0  0
   -2.8579   -0.0000    0.0000 C   0  0  0  0  0  0  0  0  0  0  0  0
   -0.7145   -0.4125    0.0000 C   0  0  0  0  0  0  0  0  0  0  0  0
   -0.7145    1.2375    0.0000 O   0  0  0  0  0  0  0  0  0  0  0  0
    0.0000   -0.0000    0.0000 O   0  0  0  0  0  0  0  0  0  0  0  0
   -4.2868   -0.8250    0.0000 O   0  0  0  0  0  0  0  0  0  0  0  0
   -3.9849    0.3020    0.0000 O   0  0  0  0  0  0  0  0  0  0  0  0
   -3.1599   -1.1270    0.0000 O   0  0  0  0  0  0  0  0  0  0  0  0
   -3.5724    1.2375    0.0000 O   0  0  0  0  0  0  0  0  0  0  0  0
   -3.5724   -0.4125    0.0000 S   0  0  0  0  0  0  0  0  0  0  0  0
    0.0000    0.0000    0.0000 H   0  0  0  0  0  0  0  0  0  0  0  0
    0.0000    0.0000    0.0000 H   0  0  0  0  0  0  0  0  0  0  0  0
    0.0000    0.0000    0.0000 H   0  0  0  0  0  0  0  0  0  0  0  0
    0.0000    0.0000    0.0000 H   0  0  0  0  0  0  0  0  0  0  0  0
    0.0000    0.0000    0.0000 H   0  0  0  0  0  0  0  0  0  0  0  0
    0.0000    0.0000    0.0000 H   0  0  0  0  0  0  0  0  0  0  0  0
    0.0000    0.0000    0.0000 H   0  0  0  0  0  0  0  0  0  0  0  0
    0.0000    0.0000    0.0000 H   0  0  0  0  0  0  0  0  0  0  0  0
    0.0000    0.0000    0.0000 H   0  0  0  0  0  0  0  0  0  0  0  0
    0.0000    0.0000    0.0000 H   0  0  0  0  0  0  0  0  0  0  0  0
    0.0000    0.0000    0.0000 H   0  0  0  0  0  0  0  0  0  0  0  0
    0.0000    0.0000    0.0000 H   0  0  0  0  0  0  0  0  0  0  0  0
  3  2  2  0
  4  2  1  0
  5  3  1  0
  6  4  2  0
  9  5  2  0
  9  6  1  0
 10  7  2  0
 11  8  2  0
 11 10  1  0
 12  8  1  0
 13  7  1  0
 13 12  2  0
 14  9  1  0
 14 10  1  0
 15 11  1  0
 16 14  2  0
 20  1  1  0
 20 12  1  0
 21 13  1  0
 21 17  1  0
 21 18  2  0
 21 19  2  0
  1 22  1  0
  1 23  1  0
  1 24  1  0
  2 25  1  0
  3 26  1  0
  4 27  1  0
  5 28  1  0
  6 29  1  0
  7 30  1  0
  8 31  1  0
 15 32  1  0
 17 33  1  0
M  END
>  <ALOGPS_LOGP>  (1) 
0.39

>  <ALOGPS_LOGS>  (1) 
-3.16

>  <ALOGPS_SOLUBILITY>  (1) 
2.14e-01 g/l

>  <DATABASE_ID>  (1) 
DB11185

>  <DATABASE_NAME>  (1) 
drugbank

>  <DRUGBANK_ID>  (1) 
DB11185

>  <DRUG_GROUPS>  (1) 
approved

>  <EXACT_MASS>  (1) 
308.03545928

>  <FORMULA>  (1) 
C14H12O6S

>  <GENERIC_NAME>  (1) 
Sulisobenzone

>  <INCHI_IDENTIFIER>  (1) 
InChI=1S/C14H12O6S/c1-20-12-8-11(15)10(7-13(12)21(17,18)19)14(16)9-5-3-2-4-6-9/h2-8,15H,1H3,(H,17,18,19)

>  <INCHI_KEY>  (1) 
CXVGEDCSTKKODG-UHFFFAOYSA-N

>  <JCHEM_ACCEPTOR_COUNT>  (1) 
6

>  <JCHEM_ATOM_COUNT>  (1) 
33

>  <JCHEM_AVERAGE_POLARIZABILITY>  (1) 
29.143297148701055

>  <JCHEM_BIOAVAILABILITY>  (1) 
1

>  <JCHEM_DONOR_COUNT>  (1) 
2

>  <JCHEM_FORMAL_CHARGE>  (1) 
0

>  <JCHEM_GHOSE_FILTER>  (1) 
1

>  <JCHEM_IUPAC>  (1) 
5-benzoyl-4-hydroxy-2-methoxybenzene-1-sulfonic acid

>  <JCHEM_LOGP>  (1) 
2.8022689826666665

>  <JCHEM_MDDR_LIKE_RULE>  (1) 
0

>  <JCHEM_NUMBER_OF_RINGS>  (1) 
2

>  <JCHEM_PHYSIOLOGICAL_CHARGE>  (1) 
-2

>  <JCHEM_PKA>  (1) 
6.567169921332094

>  <JCHEM_PKA_STRONGEST_ACIDIC>  (1) 
-2.4157440429829276

>  <JCHEM_PKA_STRONGEST_BASIC>  (1) 
-4.958492295126123

>  <JCHEM_POLAR_SURFACE_AREA>  (1) 
100.89999999999999

>  <JCHEM_REFRACTIVITY>  (1) 
75.7001

>  <JCHEM_ROTATABLE_BOND_COUNT>  (1) 
4

>  <JCHEM_RULE_OF_FIVE>  (1) 
1

>  <JCHEM_TRADITIONAL_IUPAC>  (1) 
sungard

>  <JCHEM_VEBER_RULE>  (1) 
0

>  <MOLECULAR_WEIGHT>  (1) 
308.3

>  <PRODUCTS>  (1) 
Anti-frizz Sheets; BENEFIT Triple Performing Facial Broad Spectrum SPF15; Benefit Triple Performing Facial Emulsion Broad Spectrum SPF 15; Face Oasis Plus Hydrating Fluid SPF 15; Hawaiian Tropic Herbal Protective Gel 15 SPF; Hawaiian Tropic Herbal Tanning Mist 2 SPF; Hydra Life CRÃ¨me Pro-jeunesse Avec Protection Uva/uvb; Hydra Life Fluide Pro-jeunesse Avec Protection Uva/uvb; Hydraction Visible Defense Creme Legere Hydra-protectrice SPF 20; Hydraction Visible Defense Creme Riche Hydra-protectrice SPF 20; Moderate Protection Sun SPF 15; Rayito de Sol; Sebamed Sun Cream SPF 16; Sebamed Sun Cream SPF 20; Sebamed Sun Cream SPF 8; Sebamed Sun Lotion SPF 16; Sebamed Sun Lotion SPF 20; Sebamed Sun Lotion SPF 8; Serious Shade Sunblock SPF 15; Sunscreen SPF 12; Sunscreen SPF 24; Triple Performing Facial Emulsion; Uha After Wax Moisturizing Lotion SPF 15

>  <SALTS>  (1) 
Benzophenone-5

>  <SMILES>  (1) 
COC1=C(C=C(C(=O)C2=CC=CC=C2)C(O)=C1)S(O)(=O)=O

$$$$
