
     RDKit          2D

 39 34  0  0  0  0  0  0  0  0999 V2000
   -0.7315    0.2044    0.0000 C   0  0  0  0  0  0  0  0  0  0  0  0
   -0.7315    1.0294    0.0000 C   0  0  0  0  0  0  0  0  0  0  0  0
   -0.0170    1.4419    0.0000 O   0  0  0  0  0  0  0  0  0  0  0  0
   -1.4460    1.4419    0.0000 O   0  0  0  0  0  0  0  0  0  0  0  0
   -0.0170   -0.2081    0.0000 C   0  0  0  0  0  0  0  0  0  0  0  0
    0.6974   -0.6206    0.0000 C   0  0  0  0  0  0  0  0  0  0  0  0
    1.4119   -0.2081    0.0000 C   0  0  0  0  0  0  0  0  0  0  0  0
    1.4119    0.6169    0.0000 O   0  0  0  0  0  0  0  0  0  0  0  0
    2.1264   -0.6206    0.0000 O   0  0  0  0  0  0  0  0  0  0  0  0
   -0.4295   -0.9226    0.0000 C   0  0  0  0  0  0  0  0  0  0  0  0
   -0.0170   -1.6370    0.0000 O   0  0  0  0  0  0  0  0  0  0  0  0
   -1.2545   -0.9226    0.0000 O   0  0  0  0  0  0  0  0  0  0  0  0
    0.3955    0.5064    0.0000 O   0  0  0  0  0  0  0  0  0  0  0  0
    6.5091   -0.8250    0.0000 C   0  0  0  0  0  0  0  0  0  0  0  0
    5.7946   -1.2375    0.0000 C   0  0  0  0  0  0  0  0  0  0  0  0
    5.7946   -2.0625    0.0000 O   0  0  0  0  0  0  0  0  0  0  0  0
    5.0801   -0.8250    0.0000 O   0  0  0  0  0  0  0  0  0  0  0  0
    6.5091   -0.0000    0.0000 C   0  0  0  0  0  0  0  0  0  0  0  0
    6.5091    0.8250    0.0000 C   0  0  0  0  0  0  0  0  0  0  0  0
    5.7946    1.2375    0.0000 C   0  0  0  0  0  0  0  0  0  0  0  0
    5.7946    2.0625    0.0000 O   0  0  0  0  0  0  0  0  0  0  0  0
    5.0801    0.8250    0.0000 O   0  0  0  0  0  0  0  0  0  0  0  0
    7.3341   -0.0000    0.0000 C   0  0  0  0  0  0  0  0  0  0  0  0
    7.7466    0.7145    0.0000 O   0  0  0  0  0  0  0  0  0  0  0  0
    7.7466   -0.7145    0.0000 O   0  0  0  0  0  0  0  0  0  0  0  0
    5.6841   -0.0000    0.0000 O   0  0  0  0  0  0  0  0  0  0  0  0
   -2.1604    1.8544    0.0000 Mg  0  0  0  0  0  0  0  0  0  0  0  0
    2.8409   -1.0331    0.0000 Mg  0  0  0  0  0  0  0  0  0  0  0  0
   -2.0795   -0.9226    0.0000 Mg  0  0  0  0  0  0  0  0  0  0  0  0
    0.0000    0.0000    0.0000 H   0  0  0  0  0  0  0  0  0  0  0  0
    0.0000    0.0000    0.0000 H   0  0  0  0  0  0  0  0  0  0  0  0
    0.0000    0.0000    0.0000 H   0  0  0  0  0  0  0  0  0  0  0  0
    0.0000    0.0000    0.0000 H   0  0  0  0  0  0  0  0  0  0  0  0
    0.0000    0.0000    0.0000 H   0  0  0  0  0  0  0  0  0  0  0  0
    0.0000    0.0000    0.0000 H   0  0  0  0  0  0  0  0  0  0  0  0
    0.0000    0.0000    0.0000 H   0  0  0  0  0  0  0  0  0  0  0  0
    0.0000    0.0000    0.0000 H   0  0  0  0  0  0  0  0  0  0  0  0
    0.0000    0.0000    0.0000 H   0  0  0  0  0  0  0  0  0  0  0  0
    0.0000    0.0000    0.0000 H   0  0  0  0  0  0  0  0  0  0  0  0
  1  2  1  0
  2  3  2  0
  2  4  1  0
  1  5  1  0
  5  6  1  0
  6  7  1  0
  7  8  2  0
  7  9  1  0
  5 10  1  0
 10 11  2  0
 10 12  1  0
  5 13  1  0
 14 15  1  0
 15 16  2  0
 15 17  1  0
 14 18  1  0
 18 19  1  0
 19 20  1  0
 20 21  2  0
 20 22  1  0
 18 23  1  0
 23 24  2  0
 23 25  1  0
 18 26  1  0
  1 30  1  0
  1 31  1  0
  6 32  1  0
  6 33  1  0
 13 34  1  0
 14 35  1  0
 14 36  1  0
 19 37  1  0
 19 38  1  0
 26 39  1  0
M  CHG  8   4  -1   9  -1  12  -1  17  -1  22  -1  25  -1  27   2  28   2
M  CHG  1  29   2
M  END
>  <ALOGPS_LOGP>  (1) 
0.08

>  <ALOGPS_LOGS>  (1) 
-1.85

>  <ALOGPS_SOLUBILITY>  (1) 
6.34e+00 g/l

>  <DATABASE_ID>  (1) 
DB11110

>  <DATABASE_NAME>  (1) 
drugbank

>  <DRUGBANK_ID>  (1) 
DB11110

>  <DRUG_GROUPS>  (1) 
approved

>  <EXACT_MASS>  (1) 
449.9621801

>  <FORMULA>  (1) 
C12H10Mg3O14

>  <GENERIC_NAME>  (1) 
Magnesium citrate

>  <INCHI_IDENTIFIER>  (1) 
InChI=1S/2C6H8O7.3Mg/c2*7-3(8)1-6(13,5(11)12)2-4(9)10;;;/h2*13H,1-2H2,(H,7,8)(H,9,10)(H,11,12);;;/q;;3*+2/p-6

>  <INCHI_KEY>  (1) 
PLSARIKBYIPYPF-UHFFFAOYSA-H

>  <JCHEM_ACCEPTOR_COUNT>  (1) 
7

>  <JCHEM_ATOM_COUNT>  (1) 
39

>  <JCHEM_AVERAGE_POLARIZABILITY>  (1) 
14.225921410589983

>  <JCHEM_BIOAVAILABILITY>  (1) 
1

>  <JCHEM_DONOR_COUNT>  (1) 
1

>  <JCHEM_FORMAL_CHARGE>  (1) 
0

>  <JCHEM_GHOSE_FILTER>  (1) 
0

>  <JCHEM_IUPAC>  (1) 
trimagnesium(2+) ion bis(2-hydroxypropane-1,2,3-tricarboxylate)

>  <JCHEM_LOGP>  (1) 
-1.3226874519999998

>  <JCHEM_MDDR_LIKE_RULE>  (1) 
0

>  <JCHEM_NUMBER_OF_RINGS>  (1) 
0

>  <JCHEM_PHYSIOLOGICAL_CHARGE>  (1) 
-3

>  <JCHEM_PKA>  (1) 
4.674836176324

>  <JCHEM_PKA_STRONGEST_ACIDIC>  (1) 
3.0479515131680732

>  <JCHEM_PKA_STRONGEST_BASIC>  (1) 
-4.185693450231931

>  <JCHEM_POLAR_SURFACE_AREA>  (1) 
140.61999999999998

>  <JCHEM_REFRACTIVITY>  (1) 
68.13520000000001

>  <JCHEM_ROTATABLE_BOND_COUNT>  (1) 
10

>  <JCHEM_RULE_OF_FIVE>  (1) 
1

>  <JCHEM_TRADITIONAL_IUPAC>  (1) 
trimagnesium(2+) ion dicitrate

>  <JCHEM_VEBER_RULE>  (1) 
0

>  <MOLECULAR_WEIGHT>  (1) 
451.113

>  <PRODUCTS>  (1) 
BET-R-PREP Magnesium Citrate Oral; Calcium Magnesium Plus Vitamin D Liquid; Citrate of Magnesium; Citroma; Citroma Magnesium Citrate; EZ2go Stimu-Lax; Gadavyt; Magesium Citrate; Magnesium Citrate; Magnesium Citrate Cherry; Magnesium Citrate Lemon; Magnesium Citrate Lemon ReadyInCase; Magnesium Citrate Oral Cherry Flavor; Magnesium Citrate Saline Laxative; Magnesium Citrate saline laxative; Max Lax Cherry; Max Lax Lemon; PEN Prep; PEN Prep Plus; Prenatal Chelated Mineral; Royvac Bowel Evacuant Kit; Usana Active Calcium

>  <SMILES>  (1) 
[Mg++].[Mg++].[Mg++].OC(CC([O-])=O)(CC([O-])=O)C([O-])=O.OC(CC([O-])=O)(CC([O-])=O)C([O-])=O

$$$$
