
     RDKit          2D

 72 73  0  0  0  0  0  0  0  0999 V2000
   -0.7145   -7.8375    0.0000 C   0  0  0  0  0  0  0  0  0  0  0  0
   -0.7145   -7.0125    0.0000 C   0  0  0  0  0  0  0  0  0  0  0  0
    0.1105   -7.0125    0.0000 C   0  0  0  0  0  0  0  0  0  0  0  0
   -1.5395   -7.0125    0.0000 C   0  0  0  0  0  0  0  0  0  0  0  0
   -0.7145   -6.1875    0.0000 C   0  0  0  0  0  0  0  0  0  0  0  0
    0.0000   -5.7750    0.0000 C   0  0  0  0  0  0  0  0  0  0  0  0
    0.4125   -6.4895    0.0000 C   0  0  0  0  0  0  0  0  0  0  0  0
   -0.4125   -5.0605    0.0000 C   0  0  0  0  0  0  0  0  0  0  0  0
    0.7145   -5.3625    0.0000 C   0  0  0  0  0  0  0  0  0  0  0  0
    0.7145   -4.5375    0.0000 C   0  0  0  0  0  0  0  0  0  0  0  0
    1.4289   -4.1250    0.0000 C   0  0  0  0  0  0  0  0  0  0  0  0
    2.1434   -4.5375    0.0000 C   0  0  0  0  0  0  0  0  0  0  0  0
    2.8579   -4.1250    0.0000 O   0  0  0  0  0  0  0  0  0  0  0  0
    3.5724   -4.5375    0.0000 C   0  0  0  0  0  0  0  0  0  0  0  0
    4.2868   -4.1250    0.0000 C   0  0  0  0  0  0  0  0  0  0  0  0
    5.0013   -4.5375    0.0000 O   0  0  0  0  0  0  0  0  0  0  0  0
    5.7158   -4.1250    0.0000 C   0  0  0  0  0  0  0  0  0  0  0  0
    6.4302   -4.5375    0.0000 C   0  0  0  0  0  0  0  0  0  0  0  0
    7.1447   -4.1250    0.0000 N   0  0  0  0  0  0  0  0  0  0  0  0
    7.5572   -4.8395    0.0000 C   0  0  0  0  0  0  0  0  0  0  0  0
    6.7322   -3.4105    0.0000 C   0  0  0  0  0  0  0  0  0  0  0  0
    7.8592   -3.7125    0.0000 C   0  0  0  0  0  0  0  0  0  0  0  0
    8.5737   -4.1250    0.0000 C   0  0  0  0  0  0  0  0  0  0  0  0
    9.2881   -3.7125    0.0000 C   0  0  0  0  0  0  0  0  0  0  0  0
   10.0026   -4.1250    0.0000 C   0  0  0  0  0  0  0  0  0  0  0  0
   10.0026   -4.9500    0.0000 C   0  0  0  0  0  0  0  0  0  0  0  0
    9.2881   -5.3625    0.0000 C   0  0  0  0  0  0  0  0  0  0  0  0
    8.5737   -4.9500    0.0000 C   0  0  0  0  0  0  0  0  0  0  0  0
    2.1434   -5.3625    0.0000 C   0  0  0  0  0  0  0  0  0  0  0  0
    1.4289   -5.7750    0.0000 C   0  0  0  0  0  0  0  0  0  0  0  0
    0.0000    0.0000    0.0000 H   0  0  0  0  0  0  0  0  0  0  0  0
    0.0000    0.0000    0.0000 H   0  0  0  0  0  0  0  0  0  0  0  0
    0.0000    0.0000    0.0000 H   0  0  0  0  0  0  0  0  0  0  0  0
    0.0000    0.0000    0.0000 H   0  0  0  0  0  0  0  0  0  0  0  0
    0.0000    0.0000    0.0000 H   0  0  0  0  0  0  0  0  0  0  0  0
    0.0000    0.0000    0.0000 H   0  0  0  0  0  0  0  0  0  0  0  0
    0.0000    0.0000    0.0000 H   0  0  0  0  0  0  0  0  0  0  0  0
    0.0000    0.0000    0.0000 H   0  0  0  0  0  0  0  0  0  0  0  0
    0.0000    0.0000    0.0000 H   0  0  0  0  0  0  0  0  0  0  0  0
    0.0000    0.0000    0.0000 H   0  0  0  0  0  0  0  0  0  0  0  0
    0.0000    0.0000    0.0000 H   0  0  0  0  0  0  0  0  0  0  0  0
    0.0000    0.0000    0.0000 H   0  0  0  0  0  0  0  0  0  0  0  0
    0.0000    0.0000    0.0000 H   0  0  0  0  0  0  0  0  0  0  0  0
    0.0000    0.0000    0.0000 H   0  0  0  0  0  0  0  0  0  0  0  0
    0.0000    0.0000    0.0000 H   0  0  0  0  0  0  0  0  0  0  0  0
    0.0000    0.0000    0.0000 H   0  0  0  0  0  0  0  0  0  0  0  0
    0.0000    0.0000    0.0000 H   0  0  0  0  0  0  0  0  0  0  0  0
    0.0000    0.0000    0.0000 H   0  0  0  0  0  0  0  0  0  0  0  0
    0.0000    0.0000    0.0000 H   0  0  0  0  0  0  0  0  0  0  0  0
    0.0000    0.0000    0.0000 H   0  0  0  0  0  0  0  0  0  0  0  0
    0.0000    0.0000    0.0000 H   0  0  0  0  0  0  0  0  0  0  0  0
    0.0000    0.0000    0.0000 H   0  0  0  0  0  0  0  0  0  0  0  0
    0.0000    0.0000    0.0000 H   0  0  0  0  0  0  0  0  0  0  0  0
    0.0000    0.0000    0.0000 H   0  0  0  0  0  0  0  0  0  0  0  0
    0.0000    0.0000    0.0000 H   0  0  0  0  0  0  0  0  0  0  0  0
    0.0000    0.0000    0.0000 H   0  0  0  0  0  0  0  0  0  0  0  0
    0.0000    0.0000    0.0000 H   0  0  0  0  0  0  0  0  0  0  0  0
    0.0000    0.0000    0.0000 H   0  0  0  0  0  0  0  0  0  0  0  0
    0.0000    0.0000    0.0000 H   0  0  0  0  0  0  0  0  0  0  0  0
    0.0000    0.0000    0.0000 H   0  0  0  0  0  0  0  0  0  0  0  0
    0.0000    0.0000    0.0000 H   0  0  0  0  0  0  0  0  0  0  0  0
    0.0000    0.0000    0.0000 H   0  0  0  0  0  0  0  0  0  0  0  0
    0.0000    0.0000    0.0000 H   0  0  0  0  0  0  0  0  0  0  0  0
    0.0000    0.0000    0.0000 H   0  0  0  0  0  0  0  0  0  0  0  0
    0.0000    0.0000    0.0000 H   0  0  0  0  0  0  0  0  0  0  0  0
    0.0000    0.0000    0.0000 H   0  0  0  0  0  0  0  0  0  0  0  0
    0.0000    0.0000    0.0000 H   0  0  0  0  0  0  0  0  0  0  0  0
    0.0000    0.0000    0.0000 H   0  0  0  0  0  0  0  0  0  0  0  0
    0.0000    0.0000    0.0000 H   0  0  0  0  0  0  0  0  0  0  0  0
    0.0000    0.0000    0.0000 H   0  0  0  0  0  0  0  0  0  0  0  0
    0.0000    0.0000    0.0000 H   0  0  0  0  0  0  0  0  0  0  0  0
    0.0000    0.0000    0.0000 H   0  0  0  0  0  0  0  0  0  0  0  0
  1  2  1  0
  2  3  1  0
  2  4  1  0
  2  5  1  0
  5  6  1  0
  6  7  1  0
  6  8  1  0
  6  9  1  0
  9 10  2  0
 10 11  1  0
 11 12  2  0
 12 13  1  0
 13 14  1  0
 14 15  1  0
 15 16  1  0
 16 17  1  0
 17 18  1  0
 18 19  1  0
 19 20  1  0
 19 21  1  0
 19 22  1  0
 22 23  1  0
 23 24  2  0
 24 25  1  0
 25 26  2  0
 26 27  1  0
 27 28  2  0
 23 28  1  0
 12 29  1  0
 29 30  2  0
  9 30  1  0
  1 31  1  0
  1 32  1  0
  1 33  1  0
  3 34  1  0
  3 35  1  0
  3 36  1  0
  4 37  1  0
  4 38  1  0
  4 39  1  0
  5 40  1  0
  5 41  1  0
  7 42  1  0
  7 43  1  0
  7 44  1  0
  8 45  1  0
  8 46  1  0
  8 47  1  0
 10 48  1  0
 11 49  1  0
 14 50  1  0
 14 51  1  0
 15 52  1  0
 15 53  1  0
 17 54  1  0
 17 55  1  0
 18 56  1  0
 18 57  1  0
 20 58  1  0
 20 59  1  0
 20 60  1  0
 21 61  1  0
 21 62  1  0
 21 63  1  0
 22 64  1  0
 22 65  1  0
 24 66  1  0
 25 67  1  0
 26 68  1  0
 27 69  1  0
 28 70  1  0
 29 71  1  0
 30 72  1  0
M  CHG  1  19   1
M  END
>  <ALOGPS_LOGP>  (1) 
3.13

>  <ALOGPS_LOGS>  (1) 
-7.78

>  <ALOGPS_SOLUBILITY>  (1) 
7.49e-06 g/l

>  <DATABASE_ID>  (1) 
DB11125

>  <DATABASE_NAME>  (1) 
drugbank

>  <DRUGBANK_ID>  (1) 
DB11125

>  <DRUG_GROUPS>  (1) 
approved

>  <EXACT_MASS>  (1) 
412.321006017

>  <FORMULA>  (1) 
C27H42NO2

>  <GENERIC_NAME>  (1) 
Benzethonium

>  <INCHI_IDENTIFIER>  (1) 
InChI=1S/C27H42NO2/c1-26(2,3)22-27(4,5)24-13-15-25(16-14-24)30-20-19-29-18-17-28(6,7)21-23-11-9-8-10-12-23/h8-16H,17-22H2,1-7H3/q+1

>  <INCHI_KEY>  (1) 
SIYLLGKDQZGJHK-UHFFFAOYSA-N

>  <JCHEM_ACCEPTOR_COUNT>  (1) 
2

>  <JCHEM_ATOM_COUNT>  (1) 
72

>  <JCHEM_AVERAGE_POLARIZABILITY>  (1) 
50.78346668453166

>  <JCHEM_BIOAVAILABILITY>  (1) 
1

>  <JCHEM_DONOR_COUNT>  (1) 
0

>  <JCHEM_FORMAL_CHARGE>  (1) 
1

>  <JCHEM_GHOSE_FILTER>  (1) 
0

>  <JCHEM_IUPAC>  (1) 
benzyldimethyl(2-{2-[4-(2,4,4-trimethylpentan-2-yl)phenoxy]ethoxy}ethyl)azanium

>  <JCHEM_LOGP>  (1) 
2.3706398821949213

>  <JCHEM_MDDR_LIKE_RULE>  (1) 
0

>  <JCHEM_NUMBER_OF_RINGS>  (1) 
2

>  <JCHEM_PHYSIOLOGICAL_CHARGE>  (1) 
1

>  <JCHEM_PKA_STRONGEST_ACIDIC>  (1) 
17.312348232791052

>  <JCHEM_PKA_STRONGEST_BASIC>  (1) 
-4.098198611709336

>  <JCHEM_POLAR_SURFACE_AREA>  (1) 
18.46

>  <JCHEM_REFRACTIVITY>  (1) 
139.0016

>  <JCHEM_ROTATABLE_BOND_COUNT>  (1) 
12

>  <JCHEM_RULE_OF_FIVE>  (1) 
1

>  <JCHEM_TRADITIONAL_IUPAC>  (1) 
benzyldimethyl(2-{2-[4-(2,4,4-trimethylpentan-2-yl)phenoxy]ethoxy}ethyl)azanium

>  <JCHEM_VEBER_RULE>  (1) 
0

>  <MOLECULAR_WEIGHT>  (1) 
412.637

>  <PRODUCTS>  (1) 
ANTIBACTERIAL MINI WIPES Blue Raspberry; ANTIBACTERIAL MINI WIPES Candy Apple; ANTIBACTERIAL MINI WIPES Fresh Aloe; ANTIBACTERIAL MINI WIPES Lemon Drop; ANTIBACTERIAL WIPES Blue Raspberry; ANTIBACTERIAL WIPES Candy Apple; ANTIBACTERIAL WIPES Fresh Aloe; ANTIBACTERIAL WIPES Lemon Drop; Acclaym; Aeroaid Antiseptic First Aid; Aeroburn Burn First Aid; Aerowound Blood Clotting First Aid; Anchor Foaming Hand Sanitizer; Anti-bacterial 3pk; Antibacterial; Antibacterial Wet Wipes; Antibacterial Wipes; Antimicrobial Face Body Wash; Antimicrobial Foaming Falling Rain; Antimicrobial Foaming Sanitizer; Antisepation; Antiseptic; Antiseptic Cleanser Liq 0.14%; Antiseptic Skin Cream; Antiseptic Skin Cream - 1mg/g; Aplicare Antiseptic Perineal Wash II; Aspiera Wound Care and Antiseptic; Avon Clearskin Facial Cleansing Scrub; Avon Clearskin Invigorating Cleansing Scrub; Bedside-Care; Bedside-Care Foam (Alcohol Free); Bedside-Care Perineal Wash; Ben E. Keith Foam Sanitizer; Benzethonium Chloride Solution; Benzethonium chloride Plus Dyclonine hydrochloride; Benzethonium chloride and Dyclonine hydrochloride; Benzocaine and Benzethonium; BerbereX Wound Cleanser; Blood Clotting First Aid; Bob Barker Antibacterial unwrapped body; Bob Barker Antibacterial wrapped body; Buro-sol Otic Solution; Candy Apple Anti Bacterial Hand Sanitizer; Careone Antimicrobial Foaming Hand Sp Falling Rain; Caribbean Escape Anti Bacterial Hand Sanitizer; Certus Secure Hand Sanitizer; Claires Ear Care Solution 0.13%; Clean; Cotton Candy Anti Bacterial Hand Sanitizer; Cranberry Cherry Scented Antibac; Dermal Wound Cleanser; Dermoplast First Aid; Dermoplast Pain Relieving Antibacterial; Dial Antibacterial Hand Wash; Dial Foaming Hand Wash; Dr. Numb; ECOLAB Blood Clotting; EnrichedFoam Alcohol-Free Hand Sanitizer; Family Dollar Antibacterial Hand; Family Dollar antibacterial; Fastrin Infection Control Skin Repair; Finipil Pro/elec; First Mark Foaming Hand Cleaner; Foam Sanitizer; Foaming Hand Sanitizer; Foaming Instant Hand Sanitizer; Foaming Instant Hand Sanitizer with Aloe and Vitamin E; Foamy Sanz; Forticept Antimicrobial Gel; Fresh Picked Strawberries Anti Bacterial Hand Sanitizer; Gentle Fresh Sanitizer; Germ Crusher Hand Sanitizer Wipes Germ Crusher; Gold Bond Pain and Itch; Gold Bond Ultimate Hand Sanitizer Moisturizer; Gold Bond Ultimate Hand Sanitizer Sheer Moisture; Green Guard Antiseptic First Aid; Green Guard Burn First Aid; Green Guard Super Stat Blood Clotting First Aid; Hand Kleen Foaming Instant Hand Sanitizer; Hand Sanitizer Non-Alcohol; Hand Sanitizer Spray; Hand Sanitizing Moisturizer; Hand Sanitizing Sheer Moisturizer; Hand Therape Sanitizer; Hand Wipes; Hand-E-foam; Handi-San; Happy Hands Foaming Hand Sanitizer; Health Smart Antibacterial Wet Wipes; High Five; I.C. Barrier; I.C. Hand Sanitizer; Industrial Sanitizing; Ino-F-san Instant Hand Sanitizer; Instant Hand Sanitizer; Instant Hand Sanitizing Wipes; Insti-Foam Sanitizer; Japanese Blossom Scented Antibac; Kleen-san; LYSOL Healthy Touch; LYSOL Healthy Touch Aloe Vera And Vitamin E with Moisturizers; LYSOL Healthy Touch Cleansing Green Tea and Ginger; LYSOL Healthy Touch Refreshing Grapefruit Essence; LYSOL Healthy Touch Soothing Cucumber Splash; Lanacane Anti Itch Maximum Strength; Lanacane Anti Itch Original Strength; Lanacane Anti-bacterial First Aid Spray; Lanacane First Aid; Lanacane Maximum Strength Anti Bacterial First Aid Spray; Lanacane Maximum Strength Anti-Itch; Lipsorex; Lipsorex - Gel; Lipsorex Plus; Lipsorex-gel; Liquid Bandage; Loesch Original Kleer-Plex Antimicrobial Face and Body Wash; Lynx LX0869 Alcohol Free Hand Sanitizer; Lysol Healthy Touch Antibacterial Foaming Hand Soap; Lysol Healthy Touch Antibacterial Hand Soap; Lysol Healthy Touch Antibacterial Hand Soap With Refreshing Aloe Vera & Vitamin E; Lysol No Touch; Mada Medical Foam Sanitizer; Magnolia Blossom Scented Hand Sanitizer Anti-Bacterial; Mango Madness Anti Bacterial Hand Sanitizer; Marcorodex; Medi-first Antiseptic First Aid; Medi-first Burn First Aid; Medi-first Ivy-Rid First Aid; Medi-first Protective Coating Bandage; MicroKlenz Antimicrobial; MicroMousse II Alcohol Free Hand Sanitizing Foam; Moisturizing Hand Sanitizer; Monk Hand Sanitizing Wipes; Moussant Foaming Hand Sanitizer; Mousse Instant; Mrx Liq; Neutrogena Alcohol-free Antiseptic Cleanser; New Skin Bandage; North Burn; North First Aid Antiseptic; Novana Wash Perineal Skin Cleanser; Numb Skin; Ocean Mist Scented Hand Sanitizer Anti-Bacterial; Oti-sol; Ovation Instant Hand Sanitizer; Peach Sensation Scented Hand Sanitizer Anti-Bacterial; Peri-wash II Antiseptic Cleanser; Perifoam; Personal Care; Pharmassist Soothenel Gel; Pink Grapefruit Scented Hand Sanitizer Anti-Bacterial; Piranha Brand Alcohol Free Foaming Instant Hand Sanitizer with Aloe and Vitamin E; ProStat Antiseptic First Aid; ProStat Blood Clotting First Aid; ProStat Burn First Aid; ProStat Protective Coating Bandage First Aid; Protecto Barrier Cream; Puri-San Plus; Pyrocaine Burn; QS Plus; QS Plus Hand Sanitizing Wipes; QuickMend; Quik San; SCRUBS Foaming Hand Sanitizer SCRUBS; SCRUBS Lemon Hand Sanitizer Wipes SCRUBS; SKILCRAFT Anti-bacterial Wipes SKILCRAFT; Sani Guard Alcohol Free; Sani-Foam Instant Hand Sanitizer; Secura EPC Skin Care Starter Kit; Secura Moisturizing Cleanser; Secura Personal Cleanser; Secura Total Body Foam Cleanser; Secura Two Step Kit; Secure; Securo Hand Sanitizer; Septicare; Sierra Soft Non-Alcohol Hand Sanitizer Foam; Simply Saline Plus Wound Wash Antibacterial First Aid Antiseptic; Simply Saline Wound Wash; Skin Cleanser & Deodorizer Liq .1%; Skin Shield; Skin Shield Liquid Bandage; Skintegrity Foaming Hand Sanitizer Alcohol Free; Soapy Hands; Soft Care Foaming Instant Hand Sanitizer; Spray Bandage; Sproam; Sterile Antibacterial Wound Wash; TN Dickinsons Witch Hazel Antibacterial; Tecnu Calagel; Tecnu First Aid; Terrasil Skin Repair; Terrasil Skin Repair MAX; Terrasil Wound Care; Terrasil Wound Care MAX; Touch Free Hand; Tough Guy Hand Sanitizer Wipes Tough Guy; Unicowipes; Vanilla Brown Sugar Scented Antibac; Vanilla Cupcake Anti Bacterial Hand Sanitizer; Veti-Foam; Vi-medin; Wet Ones; Wet Ones Antibacterial (towelettes); Wet Ones Lunchkins (wipes); Wet Wipes; Winning Hands Alcohol Free Hand Sanitizer; Wound Cleanser; XtraCare Wet Wipes; Your Label Here Blood Clotting First Aid; Your Logo Here Antiseptic First Aid; Your Logo Here Bandage Aid; Your Logo Here Burn First Aid; Your Logo Here Poison Ivy First Aid; Zep Foam San; Zep Non Alcohol Foam Sanitizer; Zylast XP Antiseptic; Zylast XP Antiseptic Foaming; ZylastXP Antiseptic; finipil Lait 50

>  <SALTS>  (1) 
Benzethonium chloride

>  <SMILES>  (1) 
CC(C)(C)CC(C)(C)C1=CC=C(OCCOCC[N+](C)(C)CC2=CC=CC=C2)C=C1

$$$$
