
     RDKit          2D

  2  1  0  0  0  0  0  0  0  0999 V2000
    5.8452   -6.8116    0.0000 Cl  0  0  0  0  0  0  0  0  0  0  0  0
    6.6702   -6.8116    0.0000 O   0  0  0  0  0  0  0  0  0  0  0  0
  2  1  1  0
M  CHG  1   2  -1
M  END
>  <DATABASE_ID>  (1) 
DB11123

>  <DATABASE_NAME>  (1) 
drugbank

>  <DRUGBANK_ID>  (1) 
DB11123

>  <DRUG_GROUPS>  (1) 
approved

>  <EXACT_MASS>  (1) 
50.963767329

>  <FORMULA>  (1) 
ClO

>  <GENERIC_NAME>  (1) 
Hypochlorite

>  <INCHI_IDENTIFIER>  (1) 
InChI=1S/ClO/c1-2/q-1

>  <INCHI_KEY>  (1) 
WQYVRQLZKVEZGA-UHFFFAOYSA-N

>  <JCHEM_ACCEPTOR_COUNT>  (1) 
1

>  <JCHEM_AVERAGE_POLARIZABILITY>  (1) 
3.1460209162753303

>  <JCHEM_BIOAVAILABILITY>  (1) 
1

>  <JCHEM_DONOR_COUNT>  (1) 
0

>  <JCHEM_FORMAL_CHARGE>  (1) 
-1

>  <JCHEM_GHOSE_FILTER>  (1) 
0

>  <JCHEM_IUPAC>  (1) 
hypochlorite

>  <JCHEM_LOGP>  (1) 
0.31819389766666667

>  <JCHEM_MDDR_LIKE_RULE>  (1) 
0

>  <JCHEM_NUMBER_OF_RINGS>  (1) 
0

>  <JCHEM_PHYSIOLOGICAL_CHARGE>  (1) 
0

>  <JCHEM_PKA_STRONGEST_ACIDIC>  (1) 
10.130967255257815

>  <JCHEM_PKA_STRONGEST_BASIC>  (1) 
-4.9285149225502325

>  <JCHEM_POLAR_SURFACE_AREA>  (1) 
23.06

>  <JCHEM_REFRACTIVITY>  (1) 
7.5792

>  <JCHEM_ROTATABLE_BOND_COUNT>  (1) 
0

>  <JCHEM_RULE_OF_FIVE>  (1) 
1

>  <JCHEM_TRADITIONAL_IUPAC>  (1) 
hypochlorite

>  <JCHEM_VEBER_RULE>  (1) 
1

>  <MOLECULAR_WEIGHT>  (1) 
51.452

>  <PRODUCTS>  (1) 
Dakin's Solution 0.5% Modified; Dakins Full; Dakins Half; Dakins Quarter; Di-Dak-Sol; Exsept; Exsept (0.114%)

>  <SALTS>  (1) 
Sodium hypochlorite

>  <SMILES>  (1) 
[O-]Cl

$$$$
