
     RDKit          2D

 65 69  0  0  0  0  0  0  0  0999 V2000
    4.1182    2.3871    0.0000 O   0  0  0  0  0  0  0  0  0  0  0  0
    4.9183    2.5997    0.0000 S   0  0  0  0  0  0  0  0  0  0  0  0
    4.3342    3.1863    0.0000 O   0  0  0  0  0  0  0  0  0  0  0  0
    0.6387   -2.3613    0.0000 C   0  0  0  0  0  0  0  0  0  0  0  0
    1.3552   -1.9480    0.0000 C   0  0  0  0  0  0  0  0  0  0  0  0
    1.3524   -1.1173    0.0000 C   0  0  0  0  0  0  0  0  0  0  0  0
    0.6369   -0.7083    0.0000 C   0  0  0  0  0  0  0  0  0  0  0  0
   -0.0760   -1.9484    0.0000 C   0  0  0  0  0  0  0  0  0  0  0  0
   -0.0764   -1.1209    0.0000 C   0  0  0  0  0  0  0  0  0  0  0  0
   -0.7891   -0.7100    0.0000 C   0  0  0  0  0  0  0  0  0  0  0  0
   -1.5062   -1.1216    0.0000 C   0  0  0  0  0  0  0  0  0  0  0  0
   -1.5058   -1.9492    0.0000 N   0  0  0  0  0  0  0  0  0  0  0  0
   -0.7883   -2.3648    0.0000 C   0  0  0  0  0  0  0  0  0  0  0  0
   -2.2205   -2.3613    0.0000 C   0  0  0  0  0  0  0  0  0  0  0  0
   -2.9347   -1.9484    0.0000 C   0  0  0  0  0  0  0  0  0  0  0  0
   -2.2209   -3.1863    0.0000 O   0  0  0  0  0  0  0  0  0  0  0  0
   -2.9303   -1.1246    0.0000 C   0  0  0  0  0  0  0  0  0  0  0  0
   -3.6437   -0.7119    0.0000 C   0  0  0  0  0  0  0  0  0  0  0  0
   -3.6432   -2.3624    0.0000 C   0  0  0  0  0  0  0  0  0  0  0  0
    0.6348    0.1167    0.0000 Cl  0  0  0  0  0  0  0  0  0  0  0  0
    2.0704   -2.3593    0.0000 Cl  0  0  0  0  0  0  0  0  0  0  0  0
    2.0653   -0.7021    0.0000 C   0  0  0  0  0  0  0  0  0  0  0  0
    2.7813   -1.1121    0.0000 N   0  0  0  0  0  0  0  0  0  0  0  0
    2.0622    0.1226    0.0000 O   0  0  0  0  0  0  0  0  0  0  0  0
    3.4942   -0.6968    0.0000 C   0  0  0  0  0  0  0  0  0  0  0  0
    3.4967    0.1292    0.0000 C   0  0  0  0  0  0  0  0  0  0  0  0
    4.2102   -1.1067    0.0000 C   0  0  0  0  0  0  0  0  0  0  0  0
    4.2133   -1.9317    0.0000 O   0  0  0  0  0  0  0  0  0  0  0  0
    4.9231   -0.6915    0.0000 O   0  0  0  0  0  0  0  0  0  0  0  0
    4.2124    0.5396    0.0000 C   0  0  0  0  0  0  0  0  0  0  0  0
    4.9224    0.1207    0.0000 C   0  0  0  0  0  0  0  0  0  0  0  0
    5.6377    0.5304    0.0000 C   0  0  0  0  0  0  0  0  0  0  0  0
    5.6407    1.3563    0.0000 C   0  0  0  0  0  0  0  0  0  0  0  0
    4.9223    1.7708    0.0000 C   0  0  0  0  0  0  0  0  0  0  0  0
    4.2100    1.3586    0.0000 C   0  0  0  0  0  0  0  0  0  0  0  0
   -4.3572   -1.9534    0.0000 C   0  0  0  0  0  0  0  0  0  0  0  0
   -4.3627   -1.1211    0.0000 C   0  0  0  0  0  0  0  0  0  0  0  0
   -5.1559   -0.8693    0.0000 C   0  0  0  0  0  0  0  0  0  0  0  0
   -5.6407   -1.5457    0.0000 C   0  0  0  0  0  0  0  0  0  0  0  0
   -5.1469   -2.2157    0.0000 O   0  0  0  0  0  0  0  0  0  0  0  0
    5.6362    3.0086    0.0000 C   0  0  0  0  0  0  0  0  0  0  0  0
    0.0000    0.0000    0.0000 H   0  0  0  0  0  0  0  0  0  0  0  0
    0.0000    0.0000    0.0000 H   0  0  0  0  0  0  0  0  0  0  0  0
    0.0000    0.0000    0.0000 H   0  0  0  0  0  0  0  0  0  0  0  0
    0.0000    0.0000    0.0000 H   0  0  0  0  0  0  0  0  0  0  0  0
    0.0000    0.0000    0.0000 H   0  0  0  0  0  0  0  0  0  0  0  0
    0.0000    0.0000    0.0000 H   0  0  0  0  0  0  0  0  0  0  0  0
    0.0000    0.0000    0.0000 H   0  0  0  0  0  0  0  0  0  0  0  0
    0.0000    0.0000    0.0000 H   0  0  0  0  0  0  0  0  0  0  0  0
    0.0000    0.0000    0.0000 H   0  0  0  0  0  0  0  0  0  0  0  0
    0.0000    0.0000    0.0000 H   0  0  0  0  0  0  0  0  0  0  0  0
    0.0000    0.0000    0.0000 H   0  0  0  0  0  0  0  0  0  0  0  0
    0.0000    0.0000    0.0000 H   0  0  0  0  0  0  0  0  0  0  0  0
    0.0000    0.0000    0.0000 H   0  0  0  0  0  0  0  0  0  0  0  0
    0.0000    0.0000    0.0000 H   0  0  0  0  0  0  0  0  0  0  0  0
    0.0000    0.0000    0.0000 H   0  0  0  0  0  0  0  0  0  0  0  0
    0.0000    0.0000    0.0000 H   0  0  0  0  0  0  0  0  0  0  0  0
    0.0000    0.0000    0.0000 H   0  0  0  0  0  0  0  0  0  0  0  0
    0.0000    0.0000    0.0000 H   0  0  0  0  0  0  0  0  0  0  0  0
    0.0000    0.0000    0.0000 H   0  0  0  0  0  0  0  0  0  0  0  0
    0.0000    0.0000    0.0000 H   0  0  0  0  0  0  0  0  0  0  0  0
    0.0000    0.0000    0.0000 H   0  0  0  0  0  0  0  0  0  0  0  0
    0.0000    0.0000    0.0000 H   0  0  0  0  0  0  0  0  0  0  0  0
    0.0000    0.0000    0.0000 H   0  0  0  0  0  0  0  0  0  0  0  0
    0.0000    0.0000    0.0000 H   0  0  0  0  0  0  0  0  0  0  0  0
  2  1  2  0
  3  2  2  0
  8  4  2  0
  4  5  1  0
  5  6  2  0
  6  7  1  0
  7  9  2  0
  8  9  1  0
  8 13  1  0
  9 10  1  0
 10 11  1  0
 11 12  1  0
 12 13  1  0
 12 14  1  0
 14 15  1  0
 14 16  2  0
 15 17  2  0
 17 18  1  0
 18 37  2  0
 36 19  2  0
 19 15  1  0
  7 20  1  0
  5 21  1  0
  6 22  1  0
 22 23  1  0
 22 24  2  0
 25 23  1  1
 25 26  1  0
 25 27  1  0
 27 28  1  0
 27 29  2  0
 26 30  1  0
 30 31  2  0
 31 32  1  0
 32 33  2  0
 33 34  1  0
 34 35  2  0
 35 30  1  0
 36 37  1  0
 37 38  1  0
 38 39  2  0
 39 40  1  0
 40 36  1  0
 34  2  1  0
  2 41  1  0
  4 42  1  0
 10 43  1  0
 10 44  1  0
 11 45  1  0
 11 46  1  0
 13 47  1  0
 13 48  1  0
 17 49  1  0
 18 50  1  0
 19 51  1  0
 23 52  1  0
 25 53  1  0
 26 54  1  0
 26 55  1  0
 28 56  1  0
 31 57  1  0
 32 58  1  0
 33 59  1  0
 35 60  1  0
 38 61  1  0
 39 62  1  0
 41 63  1  0
 41 64  1  0
 41 65  1  0
M  END
>  <ALOGPS_LOGP>  (1) 
3.96

>  <ALOGPS_LOGS>  (1) 
-5.03

>  <ALOGPS_SOLUBILITY>  (1) 
5.71e-03 g/l

>  <DATABASE_ID>  (1) 
DB11611

>  <DATABASE_NAME>  (1) 
drugbank

>  <DRUGBANK_ID>  (1) 
DB11611

>  <DRUG_GROUPS>  (1) 
approved

>  <EXACT_MASS>  (1) 
614.0681277

>  <FORMULA>  (1) 
C29H24Cl2N2O7S

>  <GENERIC_NAME>  (1) 
Lifitegrast

>  <INCHI_IDENTIFIER>  (1) 
InChI=1S/C29H24Cl2N2O7S/c1-41(38,39)20-4-2-3-16(11-20)12-23(29(36)37)32-27(34)25-22(30)13-19-15-33(9-7-21(19)26(25)31)28(35)18-6-5-17-8-10-40-24(17)14-18/h2-6,8,10-11,13-14,23H,7,9,12,15H2,1H3,(H,32,34)(H,36,37)/t23-/m0/s1

>  <INCHI_KEY>  (1) 
JFOZKMSJYSPYLN-QHCPKHFHSA-N

>  <JCHEM_ACCEPTOR_COUNT>  (1) 
6

>  <JCHEM_ATOM_COUNT>  (1) 
65

>  <JCHEM_AVERAGE_POLARIZABILITY>  (1) 
59.48700944157444

>  <JCHEM_BIOAVAILABILITY>  (1) 
1

>  <JCHEM_DONOR_COUNT>  (1) 
2

>  <JCHEM_FORMAL_CHARGE>  (1) 
0

>  <JCHEM_GHOSE_FILTER>  (1) 
0

>  <JCHEM_IUPAC>  (1) 
(2S)-2-{[2-(1-benzofuran-6-carbonyl)-5,7-dichloro-1,2,3,4-tetrahydroisoquinolin-6-yl]formamido}-3-(3-methanesulfonylphenyl)propanoic acid

>  <JCHEM_LOGP>  (1) 
4.020511439333333

>  <JCHEM_MDDR_LIKE_RULE>  (1) 
1

>  <JCHEM_NUMBER_OF_RINGS>  (1) 
5

>  <JCHEM_PHYSIOLOGICAL_CHARGE>  (1) 
-1

>  <JCHEM_PKA>  (1) 
12.570862574175905

>  <JCHEM_PKA_STRONGEST_ACIDIC>  (1) 
3.273466736609323

>  <JCHEM_PKA_STRONGEST_BASIC>  (1) 
-1.2827613295659326

>  <JCHEM_POLAR_SURFACE_AREA>  (1) 
133.99

>  <JCHEM_REFRACTIVITY>  (1) 
154.47889999999995

>  <JCHEM_ROTATABLE_BOND_COUNT>  (1) 
7

>  <JCHEM_RULE_OF_FIVE>  (1) 
0

>  <JCHEM_TRADITIONAL_IUPAC>  (1) 
(2S)-2-{[2-(1-benzofuran-6-carbonyl)-5,7-dichloro-3,4-dihydro-1H-isoquinolin-6-yl]formamido}-3-(3-methanesulfonylphenyl)propanoic acid

>  <JCHEM_VEBER_RULE>  (1) 
0

>  <MOLECULAR_WEIGHT>  (1) 
615.48

>  <PRODUCTS>  (1) 
Xiidra

>  <SALTS>  (1) 
Lifitegrast sodium

>  <SMILES>  (1) 
CS(=O)(=O)C1=CC(C[C@H](NC(=O)C2=C(Cl)C3=C(CN(CC3)C(=O)C3=CC=C4C=COC4=C3)C=C2Cl)C(O)=O)=CC=C1

$$$$
