
     RDKit          2D

 24 24  0  0  0  0  0  0  0  0999 V2000
   -2.2820    0.5872    0.0000 C   0  0  0  0  0  0  0  0  0  0  0  0
   -0.3297   -0.8227    0.0000 C   0  0  0  0  0  0  0  0  0  0  0  0
    1.2352    0.6294    0.0000 C   0  0  0  0  0  0  0  0  0  0  0  0
   -0.8843    0.8843    0.0000 C   0  0  0  0  0  0  0  0  0  0  0  0
   -1.4974    0.3323    0.0000 C   0  0  0  0  0  0  0  0  0  0  0  0
    0.1553   -0.1553    0.0000 C   0  0  0  0  0  0  0  0  0  0  0  0
    0.5678    1.1143    0.0000 C   0  0  0  0  0  0  0  0  0  0  0  0
    0.9803   -0.1553    0.0000 N   0  0  0  0  0  0  0  0  0  0  0  0
   -0.0997    0.6294    0.0000 N   0  0  0  0  0  0  0  0  0  0  0  0
    0.5678    1.9393    0.0000 N   0  0  0  0  0  0  0  0  0  0  0  0
   -1.3259   -0.4747    0.0000 O   0  0  0  0  0  0  0  0  0  0  0  0
   -0.1467    2.3518    0.0000 O   0  0  0  0  0  0  0  0  0  0  0  0
    1.2822    2.3518    0.0000 O   0  0  0  0  0  0  0  0  0  0  0  0
    0.0000    0.0000    0.0000 H   0  0  0  0  0  0  0  0  0  0  0  0
    0.0000    0.0000    0.0000 H   0  0  0  0  0  0  0  0  0  0  0  0
    0.0000    0.0000    0.0000 H   0  0  0  0  0  0  0  0  0  0  0  0
    0.0000    0.0000    0.0000 H   0  0  0  0  0  0  0  0  0  0  0  0
    0.0000    0.0000    0.0000 H   0  0  0  0  0  0  0  0  0  0  0  0
    0.0000    0.0000    0.0000 H   0  0  0  0  0  0  0  0  0  0  0  0
    0.0000    0.0000    0.0000 H   0  0  0  0  0  0  0  0  0  0  0  0
    0.0000    0.0000    0.0000 H   0  0  0  0  0  0  0  0  0  0  0  0
    0.0000    0.0000    0.0000 H   0  0  0  0  0  0  0  0  0  0  0  0
    0.0000    0.0000    0.0000 H   0  0  0  0  0  0  0  0  0  0  0  0
    0.0000    0.0000    0.0000 H   0  0  0  0  0  0  0  0  0  0  0  0
  5  1  1  0
  5  4  1  0
  6  2  1  0
  7  3  2  0
  8  3  1  0
  8  6  2  0
  9  4  1  0
  9  6  1  0
  9  7  1  0
 10  7  1  0
 11  5  1  0
 12 10  1  0
 13 10  2  0
  1 14  1  0
  1 15  1  0
  1 16  1  0
  2 17  1  0
  2 18  1  0
  2 19  1  0
  3 20  1  0
  4 21  1  0
  4 22  1  0
  5 23  1  0
 11 24  1  0
M  CHG  2  10   1  12  -1
M  END
>  <ALOGPS_LOGP>  (1) 
0.25

>  <ALOGPS_LOGS>  (1) 
-1.58

>  <ALOGPS_SOLUBILITY>  (1) 
4.88e+00 g/l

>  <DATABASE_ID>  (1) 
DB12834

>  <DATABASE_NAME>  (1) 
drugbank

>  <DRUGBANK_ID>  (1) 
DB12834

>  <DRUG_GROUPS>  (1) 
approved

>  <EXACT_MASS>  (1) 
185.080041226

>  <FORMULA>  (1) 
C7H11N3O3

>  <GENERIC_NAME>  (1) 
Secnidazole

>  <INCHI_IDENTIFIER>  (1) 
InChI=1S/C7H11N3O3/c1-5(11)4-9-6(2)8-3-7(9)10(12)13/h3,5,11H,4H2,1-2H3

>  <INCHI_KEY>  (1) 
KPQZUUQMTUIKBP-UHFFFAOYSA-N

>  <JCHEM_ACCEPTOR_COUNT>  (1) 
4

>  <JCHEM_ATOM_COUNT>  (1) 
24

>  <JCHEM_AVERAGE_POLARIZABILITY>  (1) 
17.56874438181771

>  <JCHEM_BIOAVAILABILITY>  (1) 
1

>  <JCHEM_DONOR_COUNT>  (1) 
1

>  <JCHEM_FORMAL_CHARGE>  (1) 
0

>  <JCHEM_GHOSE_FILTER>  (1) 
1

>  <JCHEM_IUPAC>  (1) 
1-(2-methyl-5-nitro-1H-imidazol-1-yl)propan-2-ol

>  <JCHEM_LOGP>  (1) 
-0.04273520000000014

>  <JCHEM_MDDR_LIKE_RULE>  (1) 
0

>  <JCHEM_NUMBER_OF_RINGS>  (1) 
1

>  <JCHEM_PHYSIOLOGICAL_CHARGE>  (1) 
0

>  <JCHEM_PKA_STRONGEST_ACIDIC>  (1) 
15.158427567329909

>  <JCHEM_PKA_STRONGEST_BASIC>  (1) 
3.0849497376110038

>  <JCHEM_POLAR_SURFACE_AREA>  (1) 
83.87

>  <JCHEM_REFRACTIVITY>  (1) 
45.6393

>  <JCHEM_ROTATABLE_BOND_COUNT>  (1) 
3

>  <JCHEM_RULE_OF_FIVE>  (1) 
1

>  <JCHEM_TRADITIONAL_IUPAC>  (1) 
secnidazole

>  <JCHEM_VEBER_RULE>  (1) 
0

>  <MOLECULAR_WEIGHT>  (1) 
185.183

>  <PRODUCTS>  (1) 
Solosec

>  <SMILES>  (1) 
CC(O)CN1C(C)=NC=C1N(=O)=O

>  <SYNONYMS>  (1) 
1-(2­ hydroxypropyl)-2-methyl-5-nitroimidazole; 1-(2-methyl-5-nitro-1H-imidazol-1-yl) propan-2­ ol

$$$$
