
     RDKit          2D

 36 37  0  0  1  0  0  0  0  0999 V2000
   -4.8946    4.3527    0.0000 B   0  0  0  0  0  0  0  0  0  0  0  0
   -4.8946    3.5277    0.0000 C   0  0  0  0  0  0  0  0  0  0  0  0
   -5.6091    3.1152    0.0000 C   0  0  0  0  0  0  0  0  0  0  0  0
   -6.3235    3.5277    0.0000 C   0  0  0  0  0  0  0  0  0  0  0  0
   -6.3235    4.3527    0.0000 C   0  0  0  0  0  0  0  0  0  0  0  0
   -5.6091    4.7652    0.0000 O   0  0  0  0  0  0  0  0  0  0  0  0
   -7.0380    4.7652    0.0000 C   0  0  0  0  0  0  0  0  0  0  0  0
   -7.0380    5.5902    0.0000 C   0  0  0  0  0  0  0  0  0  0  0  0
   -7.7525    6.0027    0.0000 O   0  0  0  0  0  0  0  0  0  0  0  0
   -6.3235    6.0027    0.0000 O   0  0  0  0  0  0  0  0  0  0  0  0
   -4.1801    3.1152    0.0000 N   0  0  0  0  0  0  0  0  0  0  0  0
   -4.1801    2.2902    0.0000 C   0  0  0  0  0  0  0  0  0  0  0  0
   -4.8946    1.8777    0.0000 O   0  0  0  0  0  0  0  0  0  0  0  0
   -3.4656    1.8777    0.0000 C   0  0  0  0  0  0  0  0  0  0  0  0
   -3.4656    1.0527    0.0000 C   0  0  0  0  0  0  0  0  0  0  0  0
   -2.7982    0.5678    0.0000 C   0  0  0  0  0  0  0  0  0  0  0  0
   -3.0531   -0.2169    0.0000 C   0  0  0  0  0  0  0  0  0  0  0  0
   -3.8781   -0.2169    0.0000 C   0  0  0  0  0  0  0  0  0  0  0  0
   -4.1331    0.5678    0.0000 S   0  0  0  0  0  0  0  0  0  0  0  0
   -4.1801    4.7652    0.0000 O   0  0  0  0  0  0  0  0  0  0  0  0
    0.0000    0.0000    0.0000 H   0  0  0  0  0  0  0  0  0  0  0  0
    0.0000    0.0000    0.0000 H   0  0  0  0  0  0  0  0  0  0  0  0
    0.0000    0.0000    0.0000 H   0  0  0  0  0  0  0  0  0  0  0  0
    0.0000    0.0000    0.0000 H   0  0  0  0  0  0  0  0  0  0  0  0
    0.0000    0.0000    0.0000 H   0  0  0  0  0  0  0  0  0  0  0  0
    0.0000    0.0000    0.0000 H   0  0  0  0  0  0  0  0  0  0  0  0
    0.0000    0.0000    0.0000 H   0  0  0  0  0  0  0  0  0  0  0  0
    0.0000    0.0000    0.0000 H   0  0  0  0  0  0  0  0  0  0  0  0
    0.0000    0.0000    0.0000 H   0  0  0  0  0  0  0  0  0  0  0  0
    0.0000    0.0000    0.0000 H   0  0  0  0  0  0  0  0  0  0  0  0
    0.0000    0.0000    0.0000 H   0  0  0  0  0  0  0  0  0  0  0  0
    0.0000    0.0000    0.0000 H   0  0  0  0  0  0  0  0  0  0  0  0
    0.0000    0.0000    0.0000 H   0  0  0  0  0  0  0  0  0  0  0  0
    0.0000    0.0000    0.0000 H   0  0  0  0  0  0  0  0  0  0  0  0
    0.0000    0.0000    0.0000 H   0  0  0  0  0  0  0  0  0  0  0  0
    0.0000    0.0000    0.0000 H   0  0  0  0  0  0  0  0  0  0  0  0
  1  2  1  0
  2  3  1  0
  3  4  1  0
  4  5  1  0
  5  6  1  0
  1  6  1  0
  5  7  1  6
  7  8  1  0
  8  9  2  0
  8 10  1  0
  2 11  1  1
 11 12  1  0
 12 13  2  0
 12 14  1  0
 14 15  1  0
 15 16  2  0
 16 17  1  0
 17 18  2  0
 18 19  1  0
 15 19  1  0
  1 20  1  0
  2 21  1  0
  3 22  1  0
  3 23  1  0
  4 24  1  0
  4 25  1  0
  5 26  1  0
  7 27  1  0
  7 28  1  0
 10 29  1  0
 11 30  1  0
 14 31  1  0
 14 32  1  0
 16 33  1  0
 17 34  1  0
 18 35  1  0
 20 36  1  0
M  END
>  <ALOGPS_LOGP>  (1) 
1.02

>  <ALOGPS_LOGS>  (1) 
-3.28

>  <ALOGPS_SOLUBILITY>  (1) 
1.55e-01 g/l

>  <DATABASE_ID>  (1) 
DB12107

>  <DATABASE_NAME>  (1) 
drugbank

>  <DRUGBANK_ID>  (1) 
DB12107

>  <DRUG_GROUPS>  (1) 
approved; investigational

>  <EXACT_MASS>  (1) 
297.084224

>  <FORMULA>  (1) 
C12H16BNO5S

>  <GENERIC_NAME>  (1) 
Vaborbactam

>  <INCHI_IDENTIFIER>  (1) 
InChI=1S/C12H16BNO5S/c15-11(7-9-2-1-5-20-9)14-10-4-3-8(6-12(16)17)19-13(10)18/h1-2,5,8,10,18H,3-4,6-7H2,(H,14,15)(H,16,17)/t8-,10-/m0/s1

>  <INCHI_KEY>  (1) 
IOOWNWLVCOUUEX-WPRPVWTQSA-N

>  <JCHEM_ACCEPTOR_COUNT>  (1) 
5

>  <JCHEM_ATOM_COUNT>  (1) 
36

>  <JCHEM_AVERAGE_POLARIZABILITY>  (1) 
29.666128691638324

>  <JCHEM_BIOAVAILABILITY>  (1) 
1

>  <JCHEM_DONOR_COUNT>  (1) 
3

>  <JCHEM_FORMAL_CHARGE>  (1) 
0

>  <JCHEM_GHOSE_FILTER>  (1) 
1

>  <JCHEM_IUPAC>  (1) 
2-[(3R,6S)-2-hydroxy-3-[2-(thiophen-2-yl)acetamido]-1,2-oxaborinan-6-yl]acetic acid

>  <JCHEM_LOGP>  (1) 
1.8551000000000002

>  <JCHEM_MDDR_LIKE_RULE>  (1) 
0

>  <JCHEM_NUMBER_OF_RINGS>  (1) 
2

>  <JCHEM_PHYSIOLOGICAL_CHARGE>  (1) 
-1

>  <JCHEM_PKA>  (1) 
8.835145419107965

>  <JCHEM_PKA_STRONGEST_ACIDIC>  (1) 
3.7495732286577232

>  <JCHEM_PKA_STRONGEST_BASIC>  (1) 
-2.58935250602193

>  <JCHEM_POLAR_SURFACE_AREA>  (1) 
95.86

>  <JCHEM_REFRACTIVITY>  (1) 
67.1398

>  <JCHEM_ROTATABLE_BOND_COUNT>  (1) 
5

>  <JCHEM_RULE_OF_FIVE>  (1) 
1

>  <JCHEM_TRADITIONAL_IUPAC>  (1) 
[(3R,6S)-2-hydroxy-3-[2-(thiophen-2-yl)acetamido]-1,2-oxaborinan-6-yl]acetic acid

>  <JCHEM_VEBER_RULE>  (1) 
0

>  <MOLECULAR_WEIGHT>  (1) 
297.13

>  <PRODUCTS>  (1) 
Vabomere

>  <SMILES>  (1) 
OB1O[C@H](CC(O)=O)CC[C@@H]1NC(=O)CC1=CC=CS1

$$$$
