
     RDKit          2D

144143  0  0  1  0  0  0  0  0999 V2000
   22.3263   11.2401    0.0000 C   0  0  0  0  0  0  0  0  0  0  0  0
   22.3263   10.4151    0.0000 C   0  0  0  0  0  0  0  0  0  0  0  0
   21.6118   10.0026    0.0000 C   0  0  0  0  0  0  0  0  0  0  0  0
   21.6118    9.1776    0.0000 O   0  0  0  0  0  0  0  0  0  0  0  0
   20.8974   10.4151    0.0000 N   0  0  0  0  0  0  0  0  0  0  0  0
   20.1829   10.0026    0.0000 C   0  0  0  0  0  0  0  0  0  0  0  0
   19.4684   10.4151    0.0000 C   0  0  0  0  0  0  0  0  0  0  0  0
   18.7539   10.0026    0.0000 C   0  0  0  0  0  0  0  0  0  0  0  0
   18.0395   10.4151    0.0000 C   0  0  0  0  0  0  0  0  0  0  0  0
   17.3250   10.0026    0.0000 N   0  0  0  0  0  0  0  0  0  0  0  0
   16.6105   10.4151    0.0000 C   0  0  0  0  0  0  0  0  0  0  0  0
   15.8961   10.0026    0.0000 N   0  0  0  0  0  0  0  0  0  0  0  0
   16.6105   11.2401    0.0000 N   0  0  0  0  0  0  0  0  0  0  0  0
   20.1829    9.1776    0.0000 C   0  0  0  0  0  0  0  0  0  0  0  0
   19.4684    8.7651    0.0000 O   0  0  0  0  0  0  0  0  0  0  0  0
   20.8974    8.7651    0.0000 N   0  0  0  0  0  0  0  0  0  0  0  0
   23.0408   10.0026    0.0000 N   0  0  0  0  0  0  0  0  0  0  0  0
   23.7552   10.4151    0.0000 C   0  0  0  0  0  0  0  0  0  0  0  0
   23.7552   11.2401    0.0000 O   0  0  0  0  0  0  0  0  0  0  0  0
   24.4697   10.0026    0.0000 C   0  0  0  0  0  0  0  0  0  0  0  0
   24.4697    9.1776    0.0000 C   0  0  0  0  0  0  0  0  0  0  0  0
   23.7552    8.7651    0.0000 C   0  0  0  0  0  0  0  0  0  0  0  0
   23.7552    7.9401    0.0000 C   0  0  0  0  0  0  0  0  0  0  0  0
   23.0408    7.5276    0.0000 N   0  0  0  0  0  0  0  0  0  0  0  0
   23.0408    6.7026    0.0000 C   0  0  0  0  0  0  0  0  0  0  0  0
   23.7552    6.2901    0.0000 N   0  0  0  0  0  0  0  0  0  0  0  0
   22.3263    6.2901    0.0000 N   0  0  0  0  0  0  0  0  0  0  0  0
   25.1842   10.4151    0.0000 N   0  0  0  0  0  0  0  0  0  0  0  0
   25.8987   10.0026    0.0000 C   0  0  0  0  0  0  0  0  0  0  0  0
   25.8987    9.1776    0.0000 O   0  0  0  0  0  0  0  0  0  0  0  0
   26.6131   10.4151    0.0000 C   0  0  0  0  0  0  0  0  0  0  0  0
   26.6131   11.2401    0.0000 C   0  0  0  0  0  0  0  0  0  0  0  0
   27.3276   11.6526    0.0000 C   0  0  0  0  0  0  0  0  0  0  0  0
   27.3276   12.4776    0.0000 C   0  0  0  0  0  0  0  0  0  0  0  0
   28.0421   12.8901    0.0000 N   0  0  0  0  0  0  0  0  0  0  0  0
   28.0421   13.7151    0.0000 C   0  0  0  0  0  0  0  0  0  0  0  0
   27.3276   14.1276    0.0000 N   0  0  0  0  0  0  0  0  0  0  0  0
   28.7565   14.1276    0.0000 N   0  0  0  0  0  0  0  0  0  0  0  0
   27.3276   10.0026    0.0000 N   0  0  0  0  0  0  0  0  0  0  0  0
   28.0421   10.4151    0.0000 C   0  0  0  0  0  0  0  0  0  0  0  0
   28.0421   11.2401    0.0000 O   0  0  0  0  0  0  0  0  0  0  0  0
   28.7565   10.0026    0.0000 C   0  0  0  0  0  0  0  0  0  0  0  0
   28.7565    9.1776    0.0000 C   0  0  0  0  0  0  0  0  0  0  0  0
   28.0421    8.7651    0.0000 C   0  0  0  0  0  0  0  0  0  0  0  0
   28.0421    7.9401    0.0000 C   0  0  0  0  0  0  0  0  0  0  0  0
   27.3276    7.5276    0.0000 N   0  0  0  0  0  0  0  0  0  0  0  0
   27.3276    6.7026    0.0000 C   0  0  0  0  0  0  0  0  0  0  0  0
   28.0421    6.2901    0.0000 N   0  0  0  0  0  0  0  0  0  0  0  0
   26.6131    6.2901    0.0000 N   0  0  0  0  0  0  0  0  0  0  0  0
   29.4710   10.4151    0.0000 N   0  0  0  0  0  0  0  0  0  0  0  0
   30.1855   10.0026    0.0000 C   0  0  0  0  0  0  0  0  0  0  0  0
   30.1855    9.1776    0.0000 O   0  0  0  0  0  0  0  0  0  0  0  0
   30.8999   10.4151    0.0000 C   0  0  0  0  0  0  0  0  0  0  0  0
   30.8999   11.2401    0.0000 C   0  0  0  0  0  0  0  0  0  0  0  0
   31.6144   10.0026    0.0000 N   0  0  0  0  0  0  0  0  0  0  0  0
   32.3289   10.4151    0.0000 C   0  0  0  0  0  0  0  0  0  0  0  0
   32.3289   11.2401    0.0000 O   0  0  0  0  0  0  0  0  0  0  0  0
   33.0434   10.0026    0.0000 C   0  0  0  0  0  0  0  0  0  0  0  0
   33.7578   10.4151    0.0000 C   0  0  0  0  0  0  0  0  0  0  0  0
   34.4723   10.0026    0.0000 S   0  0  0  0  0  0  0  0  0  0  0  0
   35.1868   10.4151    0.0000 S   0  0  0  0  0  0  0  0  0  0  0  0
   35.9012   10.0026    0.0000 C   0  0  0  0  0  0  0  0  0  0  0  0
   36.6157   10.4151    0.0000 C   0  0  0  0  0  0  0  0  0  0  0  0
   37.3302   10.0026    0.0000 C   0  0  0  0  0  0  0  0  0  0  0  0
   38.0447   10.4151    0.0000 O   0  0  0  0  0  0  0  0  0  0  0  0
   37.3302    9.1776    0.0000 O   0  0  0  0  0  0  0  0  0  0  0  0
   36.6157   11.2401    0.0000 N   0  0  0  0  0  0  0  0  0  0  0  0
   33.0434    9.1776    0.0000 N   0  0  0  0  0  0  0  0  0  0  0  0
   33.7578    8.7651    0.0000 C   0  0  0  0  0  0  0  0  0  0  0  0
   34.4723    9.1776    0.0000 O   0  0  0  0  0  0  0  0  0  0  0  0
   33.7578    7.9401    0.0000 C   0  0  0  0  0  0  0  0  0  0  0  0
    0.0000    0.0000    0.0000 H   0  0  0  0  0  0  0  0  0  0  0  0
    0.0000    0.0000    0.0000 H   0  0  0  0  0  0  0  0  0  0  0  0
    0.0000    0.0000    0.0000 H   0  0  0  0  0  0  0  0  0  0  0  0
    0.0000    0.0000    0.0000 H   0  0  0  0  0  0  0  0  0  0  0  0
    0.0000    0.0000    0.0000 H   0  0  0  0  0  0  0  0  0  0  0  0
    0.0000    0.0000    0.0000 H   0  0  0  0  0  0  0  0  0  0  0  0
    0.0000    0.0000    0.0000 H   0  0  0  0  0  0  0  0  0  0  0  0
    0.0000    0.0000    0.0000 H   0  0  0  0  0  0  0  0  0  0  0  0
    0.0000    0.0000    0.0000 H   0  0  0  0  0  0  0  0  0  0  0  0
    0.0000    0.0000    0.0000 H   0  0  0  0  0  0  0  0  0  0  0  0
    0.0000    0.0000    0.0000 H   0  0  0  0  0  0  0  0  0  0  0  0
    0.0000    0.0000    0.0000 H   0  0  0  0  0  0  0  0  0  0  0  0
    0.0000    0.0000    0.0000 H   0  0  0  0  0  0  0  0  0  0  0  0
    0.0000    0.0000    0.0000 H   0  0  0  0  0  0  0  0  0  0  0  0
    0.0000    0.0000    0.0000 H   0  0  0  0  0  0  0  0  0  0  0  0
    0.0000    0.0000    0.0000 H   0  0  0  0  0  0  0  0  0  0  0  0
    0.0000    0.0000    0.0000 H   0  0  0  0  0  0  0  0  0  0  0  0
    0.0000    0.0000    0.0000 H   0  0  0  0  0  0  0  0  0  0  0  0
    0.0000    0.0000    0.0000 H   0  0  0  0  0  0  0  0  0  0  0  0
    0.0000    0.0000    0.0000 H   0  0  0  0  0  0  0  0  0  0  0  0
    0.0000    0.0000    0.0000 H   0  0  0  0  0  0  0  0  0  0  0  0
    0.0000    0.0000    0.0000 H   0  0  0  0  0  0  0  0  0  0  0  0
    0.0000    0.0000    0.0000 H   0  0  0  0  0  0  0  0  0  0  0  0
    0.0000    0.0000    0.0000 H   0  0  0  0  0  0  0  0  0  0  0  0
    0.0000    0.0000    0.0000 H   0  0  0  0  0  0  0  0  0  0  0  0
    0.0000    0.0000    0.0000 H   0  0  0  0  0  0  0  0  0  0  0  0
    0.0000    0.0000    0.0000 H   0  0  0  0  0  0  0  0  0  0  0  0
    0.0000    0.0000    0.0000 H   0  0  0  0  0  0  0  0  0  0  0  0
    0.0000    0.0000    0.0000 H   0  0  0  0  0  0  0  0  0  0  0  0
    0.0000    0.0000    0.0000 H   0  0  0  0  0  0  0  0  0  0  0  0
    0.0000    0.0000    0.0000 H   0  0  0  0  0  0  0  0  0  0  0  0
    0.0000    0.0000    0.0000 H   0  0  0  0  0  0  0  0  0  0  0  0
    0.0000    0.0000    0.0000 H   0  0  0  0  0  0  0  0  0  0  0  0
    0.0000    0.0000    0.0000 H   0  0  0  0  0  0  0  0  0  0  0  0
    0.0000    0.0000    0.0000 H   0  0  0  0  0  0  0  0  0  0  0  0
    0.0000    0.0000    0.0000 H   0  0  0  0  0  0  0  0  0  0  0  0
    0.0000    0.0000    0.0000 H   0  0  0  0  0  0  0  0  0  0  0  0
    0.0000    0.0000    0.0000 H   0  0  0  0  0  0  0  0  0  0  0  0
    0.0000    0.0000    0.0000 H   0  0  0  0  0  0  0  0  0  0  0  0
    0.0000    0.0000    0.0000 H   0  0  0  0  0  0  0  0  0  0  0  0
    0.0000    0.0000    0.0000 H   0  0  0  0  0  0  0  0  0  0  0  0
    0.0000    0.0000    0.0000 H   0  0  0  0  0  0  0  0  0  0  0  0
    0.0000    0.0000    0.0000 H   0  0  0  0  0  0  0  0  0  0  0  0
    0.0000    0.0000    0.0000 H   0  0  0  0  0  0  0  0  0  0  0  0
    0.0000    0.0000    0.0000 H   0  0  0  0  0  0  0  0  0  0  0  0
    0.0000    0.0000    0.0000 H   0  0  0  0  0  0  0  0  0  0  0  0
    0.0000    0.0000    0.0000 H   0  0  0  0  0  0  0  0  0  0  0  0
    0.0000    0.0000    0.0000 H   0  0  0  0  0  0  0  0  0  0  0  0
    0.0000    0.0000    0.0000 H   0  0  0  0  0  0  0  0  0  0  0  0
    0.0000    0.0000    0.0000 H   0  0  0  0  0  0  0  0  0  0  0  0
    0.0000    0.0000    0.0000 H   0  0  0  0  0  0  0  0  0  0  0  0
    0.0000    0.0000    0.0000 H   0  0  0  0  0  0  0  0  0  0  0  0
    0.0000    0.0000    0.0000 H   0  0  0  0  0  0  0  0  0  0  0  0
    0.0000    0.0000    0.0000 H   0  0  0  0  0  0  0  0  0  0  0  0
    0.0000    0.0000    0.0000 H   0  0  0  0  0  0  0  0  0  0  0  0
    0.0000    0.0000    0.0000 H   0  0  0  0  0  0  0  0  0  0  0  0
    0.0000    0.0000    0.0000 H   0  0  0  0  0  0  0  0  0  0  0  0
    0.0000    0.0000    0.0000 H   0  0  0  0  0  0  0  0  0  0  0  0
    0.0000    0.0000    0.0000 H   0  0  0  0  0  0  0  0  0  0  0  0
    0.0000    0.0000    0.0000 H   0  0  0  0  0  0  0  0  0  0  0  0
    0.0000    0.0000    0.0000 H   0  0  0  0  0  0  0  0  0  0  0  0
    0.0000    0.0000    0.0000 H   0  0  0  0  0  0  0  0  0  0  0  0
    0.0000    0.0000    0.0000 H   0  0  0  0  0  0  0  0  0  0  0  0
    0.0000    0.0000    0.0000 H   0  0  0  0  0  0  0  0  0  0  0  0
    0.0000    0.0000    0.0000 H   0  0  0  0  0  0  0  0  0  0  0  0
    0.0000    0.0000    0.0000 H   0  0  0  0  0  0  0  0  0  0  0  0
    0.0000    0.0000    0.0000 H   0  0  0  0  0  0  0  0  0  0  0  0
    0.0000    0.0000    0.0000 H   0  0  0  0  0  0  0  0  0  0  0  0
    0.0000    0.0000    0.0000 H   0  0  0  0  0  0  0  0  0  0  0  0
    0.0000    0.0000    0.0000 H   0  0  0  0  0  0  0  0  0  0  0  0
    0.0000    0.0000    0.0000 H   0  0  0  0  0  0  0  0  0  0  0  0
    0.0000    0.0000    0.0000 H   0  0  0  0  0  0  0  0  0  0  0  0
    0.0000    0.0000    0.0000 H   0  0  0  0  0  0  0  0  0  0  0  0
  2  1  1  1
  2  3  1  0
  3  4  2  0
  3  5  1  0
  6  5  1  6
  6  7  1  0
  7  8  1  0
  8  9  1  0
  9 10  1  0
 10 11  1  0
 11 12  2  3
 11 13  1  0
  6 14  1  0
 14 15  2  0
 14 16  1  0
  2 17  1  0
 17 18  1  0
 18 19  2  0
 20 18  1  6
 20 21  1  0
 21 22  1  0
 22 23  1  0
 23 24  1  0
 24 25  1  0
 25 26  2  3
 25 27  1  0
 20 28  1  0
 28 29  1  0
 29 30  2  0
 31 29  1  1
 31 32  1  0
 32 33  1  0
 33 34  1  0
 34 35  1  0
 35 36  1  0
 36 37  2  3
 36 38  1  0
 31 39  1  0
 39 40  1  0
 40 41  2  0
 42 40  1  6
 42 43  1  0
 43 44  1  0
 44 45  1  0
 45 46  1  0
 46 47  1  0
 47 48  2  3
 47 49  1  0
 42 50  1  0
 50 51  1  0
 51 52  2  0
 53 51  1  1
 53 54  1  0
 53 55  1  0
 55 56  1  0
 56 57  2  0
 58 56  1  1
 58 59  1  0
 59 60  1  0
 60 61  1  0
 61 62  1  0
 63 62  1  6
 63 64  1  0
 64 65  2  0
 64 66  1  0
 63 67  1  0
 58 68  1  0
 68 69  1  0
 69 70  2  0
 69 71  1  0
  1 72  1  0
  1 73  1  0
  1 74  1  0
  2 75  1  0
  5 76  1  0
  6 77  1  0
  7 78  1  0
  7 79  1  0
  8 80  1  0
  8 81  1  0
  9 82  1  0
  9 83  1  0
 10 84  1  0
 12 85  1  0
 13 86  1  0
 13 87  1  0
 16 88  1  0
 16 89  1  0
 17 90  1  0
 20 91  1  0
 21 92  1  0
 21 93  1  0
 22 94  1  0
 22 95  1  0
 23 96  1  0
 23 97  1  0
 24 98  1  0
 26 99  1  0
 27100  1  0
 27101  1  0
 28102  1  0
 31103  1  0
 32104  1  0
 32105  1  0
 33106  1  0
 33107  1  0
 34108  1  0
 34109  1  0
 35110  1  0
 37111  1  0
 38112  1  0
 38113  1  0
 39114  1  0
 42115  1  0
 43116  1  0
 43117  1  0
 44118  1  0
 44119  1  0
 45120  1  0
 45121  1  0
 46122  1  0
 48123  1  0
 49124  1  0
 49125  1  0
 50126  1  0
 53127  1  0
 54128  1  0
 54129  1  0
 54130  1  0
 55131  1  0
 58132  1  0
 59133  1  0
 59134  1  0
 62135  1  0
 62136  1  0
 63137  1  0
 66138  1  0
 67139  1  0
 67140  1  0
 68141  1  0
 71142  1  0
 71143  1  0
 71144  1  0
M  END
>  <ALOGPS_LOGP>  (1) 
-3.35

>  <ALOGPS_LOGS>  (1) 
-3.90

>  <ALOGPS_SOLUBILITY>  (1) 
1.32e-01 g/l

>  <DATABASE_ID>  (1) 
DB12865

>  <DATABASE_NAME>  (1) 
drugbank

>  <DRUGBANK_ID>  (1) 
DB12865

>  <DRUG_GROUPS>  (1) 
approved; investigational

>  <EXACT_MASS>  (1) 
1047.529069983

>  <FORMULA>  (1) 
C38H73N21O10S2

>  <GENERIC_NAME>  (1) 
Etelcalcetide

>  <INCHI_IDENTIFIER>  (1) 
InChI=1S/C38H73N21O10S2/c1-18(28(62)56-22(27(40)61)8-4-12-49-35(41)42)53-30(64)23(9-5-13-50-36(43)44)58-32(66)25(11-7-15-52-38(47)48)59-31(65)24(10-6-14-51-37(45)46)57-29(63)19(2)54-33(67)26(55-20(3)60)17-71-70-16-21(39)34(68)69/h18-19,21-26H,4-17,39H2,1-3H3,(H2,40,61)(H,53,64)(H,54,67)(H,55,60)(H,56,62)(H,57,63)(H,58,66)(H,59,65)(H,68,69)(H4,41,42,49)(H4,43,44,50)(H4,45,46,51)(H4,47,48,52)/t18-,19-,21+,22-,23-,24-,25-,26-/m1/s1

>  <INCHI_KEY>  (1) 
ANIAZGVDEUQPRI-ZJQCGQFWSA-N

>  <JCHEM_ACCEPTOR_COUNT>  (1) 
23

>  <JCHEM_ATOM_COUNT>  (1) 
144

>  <JCHEM_AVERAGE_POLARIZABILITY>  (1) 
107.58190044673438

>  <JCHEM_BIOAVAILABILITY>  (1) 
0

>  <JCHEM_DONOR_COUNT>  (1) 
22

>  <JCHEM_FORMAL_CHARGE>  (1) 
0

>  <JCHEM_GHOSE_FILTER>  (1) 
0

>  <JCHEM_IUPAC>  (1) 
(2R)-2-amino-3-{[(2S)-2-{[(1R)-1-{[(1R)-4-carbamimidamido-1-{[(1R)-4-carbamimidamido-1-{[(1R)-4-carbamimidamido-1-{[(1R)-1-{[(1R)-4-carbamimidamido-1-carbamoylbutyl]carbamoyl}ethyl]carbamoyl}butyl]carbamoyl}butyl]carbamoyl}butyl]carbamoyl}ethyl]carbamoyl}-2-acetamidoethyl]disulfanyl}propanoic acid

>  <JCHEM_LOGP>  (1) 
-11.436233233227105

>  <JCHEM_MDDR_LIKE_RULE>  (1) 
0

>  <JCHEM_NUMBER_OF_RINGS>  (1) 
0

>  <JCHEM_PHYSIOLOGICAL_CHARGE>  (1) 
4

>  <JCHEM_PKA_STRONGEST_ACIDIC>  (1) 
-1.3388360159207773

>  <JCHEM_PKA_STRONGEST_BASIC>  (1) 
12.56791291965334

>  <JCHEM_POLAR_SURFACE_AREA>  (1) 
557.7099999999999

>  <JCHEM_REFRACTIVITY>  (1) 
303.62540000000007

>  <JCHEM_ROTATABLE_BOND_COUNT>  (1) 
36

>  <JCHEM_RULE_OF_FIVE>  (1) 
0

>  <JCHEM_TRADITIONAL_IUPAC>  (1) 
(2R)-2-amino-3-{[(2S)-2-{[(1R)-1-{[(1R)-4-carbamimidamido-1-{[(1R)-4-carbamimidamido-1-{[(1R)-4-carbamimidamido-1-{[(1R)-1-{[(1R)-4-carbamimidamido-1-carbamoylbutyl]carbamoyl}ethyl]carbamoyl}butyl]carbamoyl}butyl]carbamoyl}butyl]carbamoyl}ethyl]carbamoyl}-2-acetamidoethyl]disulfanyl}propanoic acid

>  <JCHEM_VEBER_RULE>  (1) 
0

>  <MOLECULAR_WEIGHT>  (1) 
1048.26

>  <PRODUCTS>  (1) 
Parsabiv

>  <SALTS>  (1) 
Etelcalcetide hydrochloride

>  <SMILES>  (1) 
C[C@@H](NC(=O)[C@@H](CCCNC(N)=N)NC(=O)[C@@H](CCCNC(N)=N)NC(=O)[C@@H](CCCNC(N)=N)NC(=O)[C@@H](C)NC(=O)[C@@H](CSSC[C@H](N)C(O)=O)NC(C)=O)C(=O)N[C@H](CCCNC(N)=N)C(N)=O

>  <SYNONYMS>  (1) 
Etelcalcetide; Velcalcetide

$$$$
