
     RDKit          2D

 56 58  0  0  0  0  0  0  0  0999 V2000
   -4.7289    4.1250    0.0000 C   0  0  0  0  0  0  0  0  0  0  0  0
    2.2836    1.9816    0.0000 C   0  0  0  0  0  0  0  0  0  0  0  0
   -4.3164    3.4105    0.0000 C   0  0  0  0  0  0  0  0  0  0  0  0
   -2.2539    0.2211    0.0000 C   0  0  0  0  0  0  0  0  0  0  0  0
   -2.2539    5.1711    0.0000 C   0  0  0  0  0  0  0  0  0  0  0  0
   -1.5395    0.6336    0.0000 C   0  0  0  0  0  0  0  0  0  0  0  0
   -2.9684    0.6336    0.0000 C   0  0  0  0  0  0  0  0  0  0  0  0
   -2.9684    4.7586    0.0000 C   0  0  0  0  0  0  0  0  0  0  0  0
   -1.5395    4.7586    0.0000 C   0  0  0  0  0  0  0  0  0  0  0  0
   -1.5395    1.4586    0.0000 C   0  0  0  0  0  0  0  0  0  0  0  0
   -2.9684    1.4586    0.0000 C   0  0  0  0  0  0  0  0  0  0  0  0
   -2.9684    3.9336    0.0000 C   0  0  0  0  0  0  0  0  0  0  0  0
   -1.5395    3.9336    0.0000 C   0  0  0  0  0  0  0  0  0  0  0  0
    0.2211    1.2671    0.0000 C   0  0  0  0  0  0  0  0  0  0  0  0
    0.2211    2.6961    0.0000 C   0  0  0  0  0  0  0  0  0  0  0  0
    1.0461    1.2671    0.0000 C   0  0  0  0  0  0  0  0  0  0  0  0
    1.0461    2.6961    0.0000 C   0  0  0  0  0  0  0  0  0  0  0  0
   -3.4914    3.4105    0.0000 C   0  0  0  0  0  0  0  0  0  0  0  0
   -2.2539    1.8711    0.0000 C   0  0  0  0  0  0  0  0  0  0  0  0
   -2.2539    3.5211    0.0000 C   0  0  0  0  0  0  0  0  0  0  0  0
   -0.1914    1.9816    0.0000 C   0  0  0  0  0  0  0  0  0  0  0  0
   -1.4289    2.6961    0.0000 C   0  0  0  0  0  0  0  0  0  0  0  0
   -2.2539    2.6961    0.0000 C   0  0  0  0  0  0  0  0  0  0  0  0
    1.4586    1.9816    0.0000 N   0  0  0  0  0  0  0  0  0  0  0  0
   -1.0164    3.4105    0.0000 O   0  0  0  0  0  0  0  0  0  0  0  0
   -3.0789    2.6961    0.0000 O   0  0  0  0  0  0  0  0  0  0  0  0
   -1.0164    1.9816    0.0000 O   0  0  0  0  0  0  0  0  0  0  0  0
    0.0000    0.0000    0.0000 H   0  0  0  0  0  0  0  0  0  0  0  0
    0.0000    0.0000    0.0000 H   0  0  0  0  0  0  0  0  0  0  0  0
    0.0000    0.0000    0.0000 H   0  0  0  0  0  0  0  0  0  0  0  0
    0.0000    0.0000    0.0000 H   0  0  0  0  0  0  0  0  0  0  0  0
    0.0000    0.0000    0.0000 H   0  0  0  0  0  0  0  0  0  0  0  0
    0.0000    0.0000    0.0000 H   0  0  0  0  0  0  0  0  0  0  0  0
    0.0000    0.0000    0.0000 H   0  0  0  0  0  0  0  0  0  0  0  0
    0.0000    0.0000    0.0000 H   0  0  0  0  0  0  0  0  0  0  0  0
    0.0000    0.0000    0.0000 H   0  0  0  0  0  0  0  0  0  0  0  0
    0.0000    0.0000    0.0000 H   0  0  0  0  0  0  0  0  0  0  0  0
    0.0000    0.0000    0.0000 H   0  0  0  0  0  0  0  0  0  0  0  0
    0.0000    0.0000    0.0000 H   0  0  0  0  0  0  0  0  0  0  0  0
    0.0000    0.0000    0.0000 H   0  0  0  0  0  0  0  0  0  0  0  0
    0.0000    0.0000    0.0000 H   0  0  0  0  0  0  0  0  0  0  0  0
    0.0000    0.0000    0.0000 H   0  0  0  0  0  0  0  0  0  0  0  0
    0.0000    0.0000    0.0000 H   0  0  0  0  0  0  0  0  0  0  0  0
    0.0000    0.0000    0.0000 H   0  0  0  0  0  0  0  0  0  0  0  0
    0.0000    0.0000    0.0000 H   0  0  0  0  0  0  0  0  0  0  0  0
    0.0000    0.0000    0.0000 H   0  0  0  0  0  0  0  0  0  0  0  0
    0.0000    0.0000    0.0000 H   0  0  0  0  0  0  0  0  0  0  0  0
    0.0000    0.0000    0.0000 H   0  0  0  0  0  0  0  0  0  0  0  0
    0.0000    0.0000    0.0000 H   0  0  0  0  0  0  0  0  0  0  0  0
    0.0000    0.0000    0.0000 H   0  0  0  0  0  0  0  0  0  0  0  0
    0.0000    0.0000    0.0000 H   0  0  0  0  0  0  0  0  0  0  0  0
    0.0000    0.0000    0.0000 H   0  0  0  0  0  0  0  0  0  0  0  0
    0.0000    0.0000    0.0000 H   0  0  0  0  0  0  0  0  0  0  0  0
    0.0000    0.0000    0.0000 H   0  0  0  0  0  0  0  0  0  0  0  0
    0.0000    0.0000    0.0000 H   0  0  0  0  0  0  0  0  0  0  0  0
    0.0000    0.0000    0.0000 H   0  0  0  0  0  0  0  0  0  0  0  0
  3  1  1  0
  6  4  2  0
  7  4  1  0
  8  5  2  0
  9  5  1  0
 10  6  1  0
 11  7  2  0
 12  8  1  0
 13  9  2  0
 16 14  1  0
 17 15  1  0
 18  3  1  0
 19 10  2  0
 19 11  1  0
 20 12  2  0
 20 13  1  0
 21 14  1  0
 21 15  1  0
 23 19  1  0
 23 20  1  0
 23 22  1  0
 24  2  1  0
 24 16  1  0
 24 17  1  0
 25 22  2  0
 26 18  1  0
 26 23  1  0
 27 21  1  0
 27 22  1  0
  1 28  1  0
  1 29  1  0
  1 30  1  0
  2 31  1  0
  2 32  1  0
  2 33  1  0
  3 34  1  0
  3 35  1  0
  4 36  1  0
  5 37  1  0
  6 38  1  0
  7 39  1  0
  8 40  1  0
  9 41  1  0
 10 42  1  0
 11 43  1  0
 12 44  1  0
 13 45  1  0
 14 46  1  0
 14 47  1  0
 15 48  1  0
 15 49  1  0
 16 50  1  0
 16 51  1  0
 17 52  1  0
 17 53  1  0
 18 54  1  0
 18 55  1  0
 21 56  1  0
M  END
>  <ALOGPS_LOGP>  (1) 
4.16

>  <ALOGPS_LOGS>  (1) 
-4.76

>  <ALOGPS_SOLUBILITY>  (1) 
6.35e-03 g/l

>  <DATABASE_ID>  (1) 
DB12278

>  <DATABASE_NAME>  (1) 
drugbank

>  <DRUGBANK_ID>  (1) 
DB12278

>  <DRUG_GROUPS>  (1) 
approved; investigational

>  <EXACT_MASS>  (1) 
367.214743799

>  <FORMULA>  (1) 
C23H29NO3

>  <GENERIC_NAME>  (1) 
Propiverine

>  <INCHI_IDENTIFIER>  (1) 
InChI=1S/C23H29NO3/c1-3-18-26-23(19-10-6-4-7-11-19,20-12-8-5-9-13-20)22(25)27-21-14-16-24(2)17-15-21/h4-13,21H,3,14-18H2,1-2H3

>  <INCHI_KEY>  (1) 
QPCVHQBVMYCJOM-UHFFFAOYSA-N

>  <JCHEM_ACCEPTOR_COUNT>  (1) 
3

>  <JCHEM_AVERAGE_POLARIZABILITY>  (1) 
41.87568619320862

>  <JCHEM_BIOAVAILABILITY>  (1) 
1

>  <JCHEM_DONOR_COUNT>  (1) 
0

>  <JCHEM_FORMAL_CHARGE>  (1) 
0

>  <JCHEM_GHOSE_FILTER>  (1) 
1

>  <JCHEM_IUPAC>  (1) 
1-methylpiperidin-4-yl 2,2-diphenyl-2-propoxyacetate

>  <JCHEM_LOGP>  (1) 
4.252704124333333

>  <JCHEM_MDDR_LIKE_RULE>  (1) 
1

>  <JCHEM_NUMBER_OF_RINGS>  (1) 
3

>  <JCHEM_PHYSIOLOGICAL_CHARGE>  (1) 
1

>  <JCHEM_PKA_STRONGEST_BASIC>  (1) 
8.716974622220402

>  <JCHEM_POLAR_SURFACE_AREA>  (1) 
38.77

>  <JCHEM_REFRACTIVITY>  (1) 
107.72609999999999

>  <JCHEM_ROTATABLE_BOND_COUNT>  (1) 
8

>  <JCHEM_RULE_OF_FIVE>  (1) 
1

>  <JCHEM_TRADITIONAL_IUPAC>  (1) 
detrunorm

>  <JCHEM_VEBER_RULE>  (1) 
1

>  <MOLECULAR_WEIGHT>  (1) 
367.4813

>  <PRODUCTS>  (1) 
Mictoryl; Mictoryl Pediatric

>  <SALTS>  (1) 
Propiverine Hydrochloride

>  <SMILES>  (1) 
CCCOC(C(=O)OC1CCN(C)CC1)(C1=CC=CC=C1)C1=CC=CC=C1

$$$$
