
     RDKit          2D

 50 52  0  0  1  0  0  0  0  0999 V2000
    5.6645   -1.0164    0.0000 H   0  0  0  0  0  0  0  0  0  0  0  0
    5.2520   -0.3020    0.0000 C   0  0  0  0  0  0  0  0  0  0  0  0
    6.0770   -0.3020    0.0000 H   0  0  0  0  0  0  0  0  0  0  0  0
    5.6645    0.4125    0.0000 H   0  0  0  0  0  0  0  0  0  0  0  0
    4.8395    0.4125    0.0000 O   0  0  0  0  0  0  0  0  0  0  0  0
    4.0145    0.4125    0.0000 C   0  0  0  0  0  0  0  0  0  0  0  0
    3.6020    1.1270    0.0000 C   0  0  0  0  0  0  0  0  0  0  0  0
    2.7770    1.1270    0.0000 C   0  0  0  0  0  0  0  0  0  0  0  0
    2.3645    0.4125    0.0000 C   0  0  0  0  0  0  0  0  0  0  0  0
    2.7770   -0.3020    0.0000 C   0  0  0  0  0  0  0  0  0  0  0  0
    3.6020   -0.3020    0.0000 C   0  0  0  0  0  0  0  0  0  0  0  0
    4.0145   -1.0164    0.0000 O   0  0  0  0  0  0  0  0  0  0  0  0
    4.8395   -1.0164    0.0000 C   0  0  0  0  0  0  0  0  0  0  0  0
    4.5573   -1.7917    0.0000 H   0  0  0  0  0  0  0  0  0  0  0  0
    5.1216   -1.7917    0.0000 H   0  0  0  0  0  0  0  0  0  0  0  0
    4.4270   -0.3020    0.0000 H   0  0  0  0  0  0  0  0  0  0  0  0
    1.5395    0.4125    0.0000 C   0  0  0  0  0  0  0  0  0  0  0  0
    1.1270   -0.3020    0.0000 C   0  0  0  0  0  0  0  0  0  0  0  0
    0.3020   -0.3020    0.0000 C   0  0  0  0  0  0  0  0  0  0  0  0
   -0.1105   -1.0164    0.0000 O   0  0  0  0  0  0  0  0  0  0  0  0
   -0.1105    0.4125    0.0000 C   0  0  0  0  0  0  0  0  0  0  0  0
    0.3020    1.1270    0.0000 C   0  0  0  0  0  0  0  0  0  0  0  0
    1.1270    1.1270    0.0000 N   0  0  0  0  0  0  0  0  0  0  0  0
    1.5395    1.8414    0.0000 C   0  0  0  0  0  0  0  0  0  0  0  0
    2.3645    1.8414    0.0000 C   0  0  0  0  0  0  0  0  0  0  0  0
   -0.9355    0.4125    0.0000 C   0  0  0  0  0  0  0  0  0  0  0  0
   -1.3480    1.1270    0.0000 C   0  0  0  0  0  0  0  0  0  0  0  0
   -2.1730    1.1270    0.0000 C   0  0  0  0  0  0  0  0  0  0  0  0
   -0.9355    1.8414    0.0000 C   0  0  0  0  0  0  0  0  0  0  0  0
    0.0000    0.0000    0.0000 H   0  0  0  0  0  0  0  0  0  0  0  0
    0.0000    0.0000    0.0000 H   0  0  0  0  0  0  0  0  0  0  0  0
    0.0000    0.0000    0.0000 H   0  0  0  0  0  0  0  0  0  0  0  0
    0.0000    0.0000    0.0000 H   0  0  0  0  0  0  0  0  0  0  0  0
    0.0000    0.0000    0.0000 H   0  0  0  0  0  0  0  0  0  0  0  0
    0.0000    0.0000    0.0000 H   0  0  0  0  0  0  0  0  0  0  0  0
    0.0000    0.0000    0.0000 H   0  0  0  0  0  0  0  0  0  0  0  0
    0.0000    0.0000    0.0000 H   0  0  0  0  0  0  0  0  0  0  0  0
    0.0000    0.0000    0.0000 H   0  0  0  0  0  0  0  0  0  0  0  0
    0.0000    0.0000    0.0000 H   0  0  0  0  0  0  0  0  0  0  0  0
    0.0000    0.0000    0.0000 H   0  0  0  0  0  0  0  0  0  0  0  0
    0.0000    0.0000    0.0000 H   0  0  0  0  0  0  0  0  0  0  0  0
    0.0000    0.0000    0.0000 H   0  0  0  0  0  0  0  0  0  0  0  0
    0.0000    0.0000    0.0000 H   0  0  0  0  0  0  0  0  0  0  0  0
    0.0000    0.0000    0.0000 H   0  0  0  0  0  0  0  0  0  0  0  0
    0.0000    0.0000    0.0000 H   0  0  0  0  0  0  0  0  0  0  0  0
    0.0000    0.0000    0.0000 H   0  0  0  0  0  0  0  0  0  0  0  0
    0.0000    0.0000    0.0000 H   0  0  0  0  0  0  0  0  0  0  0  0
    0.0000    0.0000    0.0000 H   0  0  0  0  0  0  0  0  0  0  0  0
    0.0000    0.0000    0.0000 H   0  0  0  0  0  0  0  0  0  0  0  0
    0.0000    0.0000    0.0000 H   0  0  0  0  0  0  0  0  0  0  0  0
  1  2  1  0
  2  3  1  0
  2  4  1  0
  2  5  1  0
  5  6  1  0
  6  7  2  0
  7  8  1  0
  8  9  2  0
  9 10  1  0
 10 11  2  0
  6 11  1  0
 11 12  1  0
 12 13  1  0
 13 14  1  0
 13 15  1  0
 13 16  1  0
  9 17  1  0
 17 18  1  0
 18 19  1  0
 19 20  2  0
 19 21  1  0
 21 22  1  0
 22 23  1  0
 17 23  1  0
 23 24  1  0
 24 25  1  0
  8 25  1  0
 21 26  1  1
 26 27  1  0
 27 28  1  0
 27 29  1  0
  7 30  1  0
 10 31  1  0
 17 32  1  1
 18 33  1  0
 18 34  1  0
 21 35  1  0
 22 36  1  0
 22 37  1  0
 24 38  1  0
 24 39  1  0
 25 40  1  0
 25 41  1  0
 26 42  1  0
 26 43  1  0
 27 44  1  0
 28 45  1  0
 28 46  1  0
 28 47  1  0
 29 48  1  0
 29 49  1  0
 29 50  1  0
M  ISO  6   1   2   3   2   4   2  14   2  15   2  16   2
M  END
>  <ALOGPS_LOGP>  (1) 
3.23

>  <ALOGPS_LOGS>  (1) 
-2.94

>  <ALOGPS_SOLUBILITY>  (1) 
3.61e-01 g/l

>  <DATABASE_ID>  (1) 
DB12161

>  <DATABASE_NAME>  (1) 
drugbank

>  <DRUGBANK_ID>  (1) 
DB12161

>  <DRUG_GROUPS>  (1) 
approved; investigational

>  <EXACT_MASS>  (1) 
323.236754209

>  <FORMULA>  (1) 
C19H27NO3

>  <GENERIC_NAME>  (1) 
Deutetrabenazine

>  <INCHI_IDENTIFIER>  (1) 
InChI=1S/C19H27NO3/c1-12(2)7-14-11-20-6-5-13-8-18(22-3)19(23-4)9-15(13)16(20)10-17(14)21/h8-9,12,14,16H,5-7,10-11H2,1-4H3/t14-,16-/m0/s1/i3D3,4D3

>  <INCHI_KEY>  (1) 
MKJIEFSOBYUXJB-WEZHFFAMSA-N

>  <JCHEM_ACCEPTOR_COUNT>  (1) 
4

>  <JCHEM_ATOM_COUNT>  (1) 
50

>  <JCHEM_AVERAGE_POLARIZABILITY>  (1) 
36.83372952063282

>  <JCHEM_BIOAVAILABILITY>  (1) 
1

>  <JCHEM_DONOR_COUNT>  (1) 
0

>  <JCHEM_FORMAL_CHARGE>  (1) 
0

>  <JCHEM_GHOSE_FILTER>  (1) 
1

>  <JCHEM_IUPAC>  (1) 
(3S,11bS)-9,10-di(2H3)methoxy-3-(2-methylpropyl)-1H,2H,3H,4H,6H,7H,11bH-pyrido[2,1-a]isoquinolin-2-one

>  <JCHEM_LOGP>  (1) 
3.4010616590000007

>  <JCHEM_MDDR_LIKE_RULE>  (1) 
0

>  <JCHEM_NUMBER_OF_RINGS>  (1) 
3

>  <JCHEM_PHYSIOLOGICAL_CHARGE>  (1) 
1

>  <JCHEM_PKA_STRONGEST_ACIDIC>  (1) 
18.257044915249686

>  <JCHEM_PKA_STRONGEST_BASIC>  (1) 
7.326496284144549

>  <JCHEM_POLAR_SURFACE_AREA>  (1) 
38.77

>  <JCHEM_REFRACTIVITY>  (1) 
91.3074

>  <JCHEM_ROTATABLE_BOND_COUNT>  (1) 
4

>  <JCHEM_RULE_OF_FIVE>  (1) 
1

>  <JCHEM_TRADITIONAL_IUPAC>  (1) 
(3S,11bS)-9,10-di(2H3)methoxy-3-(2-methylpropyl)-1H,3H,4H,6H,7H,11bH-pyrido[2,1-a]isoquinolin-2-one

>  <JCHEM_VEBER_RULE>  (1) 
1

>  <MOLECULAR_WEIGHT>  (1) 
323.466

>  <PRODUCTS>  (1) 
Austedo

>  <SMILES>  (1) 
[2H]C([2H])([2H])OC1=CC2=C(C=C1OC([2H])([2H])[2H])[C@@H]1CC(=O)[C@@H](CC(C)C)CN1CC2

$$$$
