
     RDKit          2D

139144  0  0  1  0  0  0  0  0999 V2000
    9.5735   -3.9420    0.0000 C   0  0  0  0  0  0  0  0  0  0  0  0
    9.1479   -4.6488    0.0000 N   0  0  0  0  0  0  0  0  0  0  0  0
    8.9898   -5.4585    0.0000 C   0  0  0  0  0  0  0  0  0  0  0  0
    8.2095   -5.7263    0.0000 C   0  0  0  0  0  0  0  0  0  0  0  0
    7.5873   -5.1845    0.0000 C   0  0  0  0  0  0  0  0  0  0  0  0
    6.8070   -5.4524    0.0000 C   0  0  0  0  0  0  0  0  0  0  0  0
    6.1849   -4.9106    0.0000 C   0  0  0  0  0  0  0  0  0  0  0  0
    6.3430   -4.1009    0.0000 C   0  0  0  0  0  0  0  0  0  0  0  0
    7.1233   -3.8330    0.0000 C   0  0  0  0  0  0  0  0  0  0  0  0
    7.7455   -4.3748    0.0000 C   0  0  0  0  0  0  0  0  0  0  0  0
    8.5258   -4.1069    0.0000 C   0  0  0  0  0  0  0  0  0  0  0  0
    8.6839   -3.2972    0.0000 C   0  0  0  0  0  0  0  0  0  0  0  0
    8.0618   -2.7554    0.0000 C   0  0  0  0  0  0  0  0  0  0  0  0
    7.2815   -3.0233    0.0000 C   0  0  0  0  0  0  0  0  0  0  0  0
    6.6593   -2.4815    0.0000 C   0  0  0  0  0  0  0  0  0  0  0  0
    6.8175   -1.6718    0.0000 C   0  0  0  0  0  0  0  0  0  0  0  0
    7.5978   -1.4039    0.0000 C   0  0  0  0  0  0  0  0  0  0  0  0
    8.2199   -1.9457    0.0000 C   0  0  0  0  0  0  0  0  0  0  0  0
    7.7559   -0.5942    0.0000 O   0  0  0  0  0  0  0  0  0  0  0  0
    8.5362   -0.3263    0.0000 C   0  0  0  0  0  0  0  0  0  0  0  0
    6.1953   -1.1300    0.0000 O   0  0  0  0  0  0  0  0  0  0  0  0
    6.3535   -0.3203    0.0000 C   0  0  0  0  0  0  0  0  0  0  0  0
    5.7209   -3.5591    0.0000 O   0  0  0  0  0  0  0  0  0  0  0  0
    5.8790   -2.7494    0.0000 C   0  0  0  0  0  0  0  0  0  0  0  0
    5.4046   -5.1785    0.0000 O   0  0  0  0  0  0  0  0  0  0  0  0
    4.7824   -4.6367    0.0000 C   0  0  0  0  0  0  0  0  0  0  0  0
    9.9178   -4.9451    0.0000 C   0  0  0  0  0  0  0  0  0  0  0  0
   10.5595   -4.4265    0.0000 C   0  0  0  0  0  0  0  0  0  0  0  0
   11.3294   -4.7228    0.0000 C   0  0  0  0  0  0  0  0  0  0  0  0
   11.4577   -5.5378    0.0000 O   0  0  0  0  0  0  0  0  0  0  0  0
   11.9710   -4.2042    0.0000 O   0  0  0  0  0  0  0  0  0  0  0  0
   12.7409   -4.5006    0.0000 C   0  0  0  0  0  0  0  0  0  0  0  0
   12.8693   -5.3155    0.0000 C   0  0  0  0  0  0  0  0  0  0  0  0
   13.6392   -5.6119    0.0000 C   0  0  0  0  0  0  0  0  0  0  0  0
   14.2808   -5.0933    0.0000 C   0  0  0  0  0  0  0  0  0  0  0  0
   15.0508   -5.3896    0.0000 C   0  0  0  0  0  0  0  0  0  0  0  0
   15.6924   -4.8710    0.0000 O   0  0  0  0  0  0  0  0  0  0  0  0
   16.4623   -5.1674    0.0000 C   0  0  0  0  0  0  0  0  0  0  0  0
   16.5906   -5.9823    0.0000 O   0  0  0  0  0  0  0  0  0  0  0  0
   17.1039   -4.6488    0.0000 C   0  0  0  0  0  0  0  0  0  0  0  0
   17.8739   -4.9451    0.0000 C   0  0  0  0  0  0  0  0  0  0  0  0
   18.5155   -4.4265    0.0000 N   0  0  0  0  0  0  0  0  0  0  0  0
   18.9410   -3.7197    0.0000 C   0  0  0  0  0  0  0  0  0  0  0  0
   19.7659   -3.7349    0.0000 C   0  0  0  0  0  0  0  0  0  0  0  0
   20.1652   -4.4568    0.0000 C   0  0  0  0  0  0  0  0  0  0  0  0
   20.9901   -4.4719    0.0000 C   0  0  0  0  0  0  0  0  0  0  0  0
   21.3894   -5.1938    0.0000 C   0  0  0  0  0  0  0  0  0  0  0  0
   20.9638   -5.9006    0.0000 C   0  0  0  0  0  0  0  0  0  0  0  0
   20.1390   -5.8855    0.0000 C   0  0  0  0  0  0  0  0  0  0  0  0
   19.7396   -5.1636    0.0000 C   0  0  0  0  0  0  0  0  0  0  0  0
   18.9148   -5.1484    0.0000 C   0  0  0  0  0  0  0  0  0  0  0  0
   18.4892   -5.8552    0.0000 C   0  0  0  0  0  0  0  0  0  0  0  0
   18.8886   -6.5771    0.0000 C   0  0  0  0  0  0  0  0  0  0  0  0
   19.7134   -6.5923    0.0000 C   0  0  0  0  0  0  0  0  0  0  0  0
   20.1127   -7.3142    0.0000 C   0  0  0  0  0  0  0  0  0  0  0  0
   19.6872   -8.0210    0.0000 C   0  0  0  0  0  0  0  0  0  0  0  0
   18.8623   -8.0058    0.0000 C   0  0  0  0  0  0  0  0  0  0  0  0
   18.4630   -7.2839    0.0000 C   0  0  0  0  0  0  0  0  0  0  0  0
   18.4368   -8.7126    0.0000 O   0  0  0  0  0  0  0  0  0  0  0  0
   17.6119   -8.6975    0.0000 C   0  0  0  0  0  0  0  0  0  0  0  0
   20.0865   -8.7429    0.0000 O   0  0  0  0  0  0  0  0  0  0  0  0
   20.9114   -8.7580    0.0000 C   0  0  0  0  0  0  0  0  0  0  0  0
   21.3631   -6.6225    0.0000 O   0  0  0  0  0  0  0  0  0  0  0  0
   20.9376   -7.3293    0.0000 C   0  0  0  0  0  0  0  0  0  0  0  0
   22.2142   -5.2090    0.0000 O   0  0  0  0  0  0  0  0  0  0  0  0
   22.6135   -5.9309    0.0000 C   0  0  0  0  0  0  0  0  0  0  0  0
   17.8933   -3.8847    0.0000 C   0  0  0  0  0  0  0  0  0  0  0  0
    0.0000    0.0000    0.0000 H   0  0  0  0  0  0  0  0  0  0  0  0
    0.0000    0.0000    0.0000 H   0  0  0  0  0  0  0  0  0  0  0  0
    0.0000    0.0000    0.0000 H   0  0  0  0  0  0  0  0  0  0  0  0
    0.0000    0.0000    0.0000 H   0  0  0  0  0  0  0  0  0  0  0  0
    0.0000    0.0000    0.0000 H   0  0  0  0  0  0  0  0  0  0  0  0
    0.0000    0.0000    0.0000 H   0  0  0  0  0  0  0  0  0  0  0  0
    0.0000    0.0000    0.0000 H   0  0  0  0  0  0  0  0  0  0  0  0
    0.0000    0.0000    0.0000 H   0  0  0  0  0  0  0  0  0  0  0  0
    0.0000    0.0000    0.0000 H   0  0  0  0  0  0  0  0  0  0  0  0
    0.0000    0.0000    0.0000 H   0  0  0  0  0  0  0  0  0  0  0  0
    0.0000    0.0000    0.0000 H   0  0  0  0  0  0  0  0  0  0  0  0
    0.0000    0.0000    0.0000 H   0  0  0  0  0  0  0  0  0  0  0  0
    0.0000    0.0000    0.0000 H   0  0  0  0  0  0  0  0  0  0  0  0
    0.0000    0.0000    0.0000 H   0  0  0  0  0  0  0  0  0  0  0  0
    0.0000    0.0000    0.0000 H   0  0  0  0  0  0  0  0  0  0  0  0
    0.0000    0.0000    0.0000 H   0  0  0  0  0  0  0  0  0  0  0  0
    0.0000    0.0000    0.0000 H   0  0  0  0  0  0  0  0  0  0  0  0
    0.0000    0.0000    0.0000 H   0  0  0  0  0  0  0  0  0  0  0  0
    0.0000    0.0000    0.0000 H   0  0  0  0  0  0  0  0  0  0  0  0
    0.0000    0.0000    0.0000 H   0  0  0  0  0  0  0  0  0  0  0  0
    0.0000    0.0000    0.0000 H   0  0  0  0  0  0  0  0  0  0  0  0
    0.0000    0.0000    0.0000 H   0  0  0  0  0  0  0  0  0  0  0  0
    0.0000    0.0000    0.0000 H   0  0  0  0  0  0  0  0  0  0  0  0
    0.0000    0.0000    0.0000 H   0  0  0  0  0  0  0  0  0  0  0  0
    0.0000    0.0000    0.0000 H   0  0  0  0  0  0  0  0  0  0  0  0
    0.0000    0.0000    0.0000 H   0  0  0  0  0  0  0  0  0  0  0  0
    0.0000    0.0000    0.0000 H   0  0  0  0  0  0  0  0  0  0  0  0
    0.0000    0.0000    0.0000 H   0  0  0  0  0  0  0  0  0  0  0  0
    0.0000    0.0000    0.0000 H   0  0  0  0  0  0  0  0  0  0  0  0
    0.0000    0.0000    0.0000 H   0  0  0  0  0  0  0  0  0  0  0  0
    0.0000    0.0000    0.0000 H   0  0  0  0  0  0  0  0  0  0  0  0
    0.0000    0.0000    0.0000 H   0  0  0  0  0  0  0  0  0  0  0  0
    0.0000    0.0000    0.0000 H   0  0  0  0  0  0  0  0  0  0  0  0
    0.0000    0.0000    0.0000 H   0  0  0  0  0  0  0  0  0  0  0  0
    0.0000    0.0000    0.0000 H   0  0  0  0  0  0  0  0  0  0  0  0
    0.0000    0.0000    0.0000 H   0  0  0  0  0  0  0  0  0  0  0  0
    0.0000    0.0000    0.0000 H   0  0  0  0  0  0  0  0  0  0  0  0
    0.0000    0.0000    0.0000 H   0  0  0  0  0  0  0  0  0  0  0  0
    0.0000    0.0000    0.0000 H   0  0  0  0  0  0  0  0  0  0  0  0
    0.0000    0.0000    0.0000 H   0  0  0  0  0  0  0  0  0  0  0  0
    0.0000    0.0000    0.0000 H   0  0  0  0  0  0  0  0  0  0  0  0
    0.0000    0.0000    0.0000 H   0  0  0  0  0  0  0  0  0  0  0  0
    0.0000    0.0000    0.0000 H   0  0  0  0  0  0  0  0  0  0  0  0
    0.0000    0.0000    0.0000 H   0  0  0  0  0  0  0  0  0  0  0  0
    0.0000    0.0000    0.0000 H   0  0  0  0  0  0  0  0  0  0  0  0
    0.0000    0.0000    0.0000 H   0  0  0  0  0  0  0  0  0  0  0  0
    0.0000    0.0000    0.0000 H   0  0  0  0  0  0  0  0  0  0  0  0
    0.0000    0.0000    0.0000 H   0  0  0  0  0  0  0  0  0  0  0  0
    0.0000    0.0000    0.0000 H   0  0  0  0  0  0  0  0  0  0  0  0
    0.0000    0.0000    0.0000 H   0  0  0  0  0  0  0  0  0  0  0  0
    0.0000    0.0000    0.0000 H   0  0  0  0  0  0  0  0  0  0  0  0
    0.0000    0.0000    0.0000 H   0  0  0  0  0  0  0  0  0  0  0  0
    0.0000    0.0000    0.0000 H   0  0  0  0  0  0  0  0  0  0  0  0
    0.0000    0.0000    0.0000 H   0  0  0  0  0  0  0  0  0  0  0  0
    0.0000    0.0000    0.0000 H   0  0  0  0  0  0  0  0  0  0  0  0
    0.0000    0.0000    0.0000 H   0  0  0  0  0  0  0  0  0  0  0  0
    0.0000    0.0000    0.0000 H   0  0  0  0  0  0  0  0  0  0  0  0
    0.0000    0.0000    0.0000 H   0  0  0  0  0  0  0  0  0  0  0  0
    0.0000    0.0000    0.0000 H   0  0  0  0  0  0  0  0  0  0  0  0
    0.0000    0.0000    0.0000 H   0  0  0  0  0  0  0  0  0  0  0  0
    0.0000    0.0000    0.0000 H   0  0  0  0  0  0  0  0  0  0  0  0
    0.0000    0.0000    0.0000 H   0  0  0  0  0  0  0  0  0  0  0  0
    0.0000    0.0000    0.0000 H   0  0  0  0  0  0  0  0  0  0  0  0
    0.0000    0.0000    0.0000 H   0  0  0  0  0  0  0  0  0  0  0  0
    0.0000    0.0000    0.0000 H   0  0  0  0  0  0  0  0  0  0  0  0
    0.0000    0.0000    0.0000 H   0  0  0  0  0  0  0  0  0  0  0  0
    0.0000    0.0000    0.0000 H   0  0  0  0  0  0  0  0  0  0  0  0
    0.0000    0.0000    0.0000 H   0  0  0  0  0  0  0  0  0  0  0  0
    0.0000    0.0000    0.0000 H   0  0  0  0  0  0  0  0  0  0  0  0
    0.0000    0.0000    0.0000 H   0  0  0  0  0  0  0  0  0  0  0  0
    0.0000    0.0000    0.0000 H   0  0  0  0  0  0  0  0  0  0  0  0
    0.0000    0.0000    0.0000 H   0  0  0  0  0  0  0  0  0  0  0  0
  2  1  1  6
  2  3  1  0
  3  4  1  0
  4  5  1  0
  5  6  2  0
  6  7  1  0
  7  8  2  0
  8  9  1  0
  9 10  2  0
  5 10  1  0
 10 11  1  0
  2 11  1  0
 11 12  1  1
 12 13  1  0
 13 14  2  0
 14 15  1  0
 15 16  2  0
 16 17  1  0
 17 18  2  0
 13 18  1  0
 17 19  1  0
 19 20  1  0
 16 21  1  0
 21 22  1  0
  8 23  1  0
 23 24  1  0
  7 25  1  0
 25 26  1  0
  2 27  1  0
 27 28  1  0
 28 29  1  0
 29 30  2  0
 29 31  1  0
 31 32  1  0
 32 33  1  0
 33 34  1  0
 34 35  1  0
 35 36  1  0
 36 37  1  0
 37 38  1  0
 38 39  2  0
 38 40  1  0
 40 41  1  0
 42 41  1  1
 42 43  1  0
 43 44  1  0
 44 45  1  0
 45 46  2  0
 46 47  1  0
 47 48  2  0
 48 49  1  0
 49 50  2  0
 45 50  1  0
 50 51  1  0
 42 51  1  0
 51 52  1  1
 52 53  1  0
 53 54  2  0
 54 55  1  0
 55 56  2  0
 56 57  1  0
 57 58  2  0
 53 58  1  0
 57 59  1  0
 59 60  1  0
 56 61  1  0
 61 62  1  0
 48 63  1  0
 63 64  1  0
 47 65  1  0
 65 66  1  0
 42 67  1  0
  1 68  1  0
  1 69  1  0
  1 70  1  0
  3 71  1  0
  3 72  1  0
  4 73  1  0
  4 74  1  0
  6 75  1  0
  9 76  1  0
 11 77  1  0
 12 78  1  0
 12 79  1  0
 14 80  1  0
 15 81  1  0
 18 82  1  0
 20 83  1  0
 20 84  1  0
 20 85  1  0
 22 86  1  0
 22 87  1  0
 22 88  1  0
 24 89  1  0
 24 90  1  0
 24 91  1  0
 26 92  1  0
 26 93  1  0
 26 94  1  0
 27 95  1  0
 27 96  1  0
 28 97  1  0
 28 98  1  0
 32 99  1  0
 32100  1  0
 33101  1  0
 33102  1  0
 34103  1  0
 34104  1  0
 35105  1  0
 35106  1  0
 36107  1  0
 36108  1  0
 40109  1  0
 40110  1  0
 41111  1  0
 41112  1  0
 43113  1  0
 43114  1  0
 44115  1  0
 44116  1  0
 46117  1  0
 49118  1  0
 51119  1  0
 52120  1  0
 52121  1  0
 54122  1  0
 55123  1  0
 58124  1  0
 60125  1  0
 60126  1  0
 60127  1  0
 62128  1  0
 62129  1  0
 62130  1  0
 64131  1  0
 64132  1  0
 64133  1  0
 66134  1  0
 66135  1  0
 66136  1  0
 67137  1  0
 67138  1  0
 67139  1  0
M  CHG  2   2   1  42   1
M  END
>  <ALOGPS_LOGP>  (1) 
3.41

>  <ALOGPS_LOGS>  (1) 
-7.63

>  <ALOGPS_SOLUBILITY>  (1) 
2.32e-05 g/l

>  <DATABASE_ID>  (1) 
DB13450

>  <DATABASE_NAME>  (1) 
drugbank

>  <DRUGBANK_ID>  (1) 
DB13450

>  <DRUG_GROUPS>  (1) 
approved; experimental

>  <EXACT_MASS>  (1) 
928.507428607

>  <FORMULA>  (1) 
C53H72N2O12

>  <GENERIC_NAME>  (1) 
Cisatracurium

>  <INCHI_IDENTIFIER>  (1) 
InChI=1S/C53H72N2O12/c1-54(22-18-38-32-48(62-7)50(64-9)34-40(38)42(54)28-36-14-16-44(58-3)46(30-36)60-5)24-20-52(56)66-26-12-11-13-27-67-53(57)21-25-55(2)23-19-39-33-49(63-8)51(65-10)35-41(39)43(55)29-37-15-17-45(59-4)47(31-37)61-6/h14-17,30-35,42-43H,11-13,18-29H2,1-10H3/q+2/t42-,43-,54-,55-/m1/s1

>  <INCHI_KEY>  (1) 
YXSLJKQTIDHPOT-LJCJQEJUSA-N

>  <JCHEM_ACCEPTOR_COUNT>  (1) 
10

>  <JCHEM_ATOM_COUNT>  (1) 
139

>  <JCHEM_AVERAGE_POLARIZABILITY>  (1) 
105.99840667329309

>  <JCHEM_BIOAVAILABILITY>  (1) 
0

>  <JCHEM_DONOR_COUNT>  (1) 
0

>  <JCHEM_FORMAL_CHARGE>  (1) 
2

>  <JCHEM_GHOSE_FILTER>  (1) 
0

>  <JCHEM_IUPAC>  (1) 
(1R,2R)-1-[(3,4-dimethoxyphenyl)methyl]-2-(3-{[5-({3-[(1R,2R)-1-[(3,4-dimethoxyphenyl)methyl]-6,7-dimethoxy-2-methyl-1,2,3,4-tetrahydroisoquinolin-2-ium-2-yl]propanoyl}oxy)pentyl]oxy}-3-oxopropyl)-6,7-dimethoxy-2-methyl-1,2,3,4-tetrahydroisoquinolin-2-ium

>  <JCHEM_LOGP>  (1) 
-0.9590320619434906

>  <JCHEM_MDDR_LIKE_RULE>  (1) 
1

>  <JCHEM_NUMBER_OF_RINGS>  (1) 
6

>  <JCHEM_PHYSIOLOGICAL_CHARGE>  (1) 
2

>  <JCHEM_PKA>  (1) 
19.618566918135098

>  <JCHEM_PKA_STRONGEST_ACIDIC>  (1) 
19.016506926807132

>  <JCHEM_PKA_STRONGEST_BASIC>  (1) 
-4.114322707937125

>  <JCHEM_POLAR_SURFACE_AREA>  (1) 
126.44000000000003

>  <JCHEM_REFRACTIVITY>  (1) 
280.6771999999999

>  <JCHEM_ROTATABLE_BOND_COUNT>  (1) 
26

>  <JCHEM_RULE_OF_FIVE>  (1) 
0

>  <JCHEM_TRADITIONAL_IUPAC>  (1) 
(1R,2R)-1-[(3,4-dimethoxyphenyl)methyl]-2-(3-{[5-({3-[(1R,2R)-1-[(3,4-dimethoxyphenyl)methyl]-6,7-dimethoxy-2-methyl-3,4-dihydro-1H-isoquinolin-2-ium-2-yl]propanoyl}oxy)pentyl]oxy}-3-oxopropyl)-6,7-dimethoxy-2-methyl-3,4-dihydro-1H-isoquinolin-2-ium

>  <JCHEM_VEBER_RULE>  (1) 
0

>  <MOLECULAR_WEIGHT>  (1) 
929.16

>  <PRODUCTS>  (1) 
Cisatracurium Besylate Injection; Cisatracurium Omega Single Dose

>  <SMILES>  (1) 
COC1=CC=C(C[C@@H]2C3=CC(OC)=C(OC)C=C3CC[N@+]2(C)CCC(=O)OCCCCCOC(=O)CC[N@@+]2(C)CCC3=CC(OC)=C(OC)C=C3[C@H]2CC2=CC=C(OC)C(OC)=C2)C=C1OC

$$$$
