
     RDKit          2D

217218  0  0  0  0  0  0  0  0999 V2000
    5.2304   -1.2779    0.0000 C   0  0  0  0  0  0  0  0  0  0  0  0
    5.1951   -2.7003    0.0000 C   0  0  0  0  0  0  0  0  0  0  0  0
   -0.1046   -5.7063    0.0000 C   0  0  0  0  0  0  0  0  0  0  0  0
    1.2442   -5.5503    0.0000 C   0  0  0  0  0  0  0  0  0  0  0  0
    4.1205    5.7063    0.0000 C   0  0  0  0  0  0  0  0  0  0  0  0
    3.3299    5.1835    0.0000 C   0  0  0  0  0  0  0  0  0  0  0  0
    6.8799    0.5922    0.0000 C   0  0  0  0  0  0  0  0  0  0  0  0
    7.6081    1.2026    0.0000 C   0  0  0  0  0  0  0  0  0  0  0  0
    1.6822    4.0159    0.0000 C   0  0  0  0  0  0  0  0  0  0  0  0
   -2.3588    3.5836    0.0000 C   0  0  0  0  0  0  0  0  0  0  0  0
    1.2565    0.4859    0.0000 C   0  0  0  0  0  0  0  0  0  0  0  0
   -2.9212   -3.0866    0.0000 C   0  0  0  0  0  0  0  0  0  0  0  0
    0.8013    1.1373    0.0000 C   0  0  0  0  0  0  0  0  0  0  0  0
   -3.2983   -3.8350    0.0000 C   0  0  0  0  0  0  0  0  0  0  0  0
    4.0564   -1.5217    0.0000 C   0  0  0  0  0  0  0  0  0  0  0  0
    0.4301   -4.4220    0.0000 C   0  0  0  0  0  0  0  0  0  0  0  0
   -7.5486   -1.5181    0.0000 C   0  0  0  0  0  0  0  0  0  0  0  0
    7.1241    4.5945    0.0000 C   0  0  0  0  0  0  0  0  0  0  0  0
   -5.5759   -0.8771    0.0000 C   0  0  0  0  0  0  0  0  0  0  0  0
   -0.8533    0.0585    0.0000 C   0  0  0  0  0  0  0  0  0  0  0  0
    1.6171   -0.7626    0.0000 C   0  0  0  0  0  0  0  0  0  0  0  0
   -1.4462   -0.1243    0.0000 C   0  0  0  0  0  0  0  0  0  0  0  0
    0.4110    1.4613    0.0000 C   0  0  0  0  0  0  0  0  0  0  0  0
    3.1607    1.1980    0.0000 C   0  0  0  0  0  0  0  0  0  0  0  0
    4.7802   -1.9708    0.0000 C   0  0  0  0  0  0  0  0  0  0  0  0
    0.5247   -5.2388    0.0000 C   0  0  0  0  0  0  0  0  0  0  0  0
    4.0931    4.8505    0.0000 C   0  0  0  0  0  0  0  0  0  0  0  0
    6.7916    1.4351    0.0000 C   0  0  0  0  0  0  0  0  0  0  0  0
    2.2641    3.4015    0.0000 C   0  0  0  0  0  0  0  0  0  0  0  0
   -2.2319    2.7489    0.0000 C   0  0  0  0  0  0  0  0  0  0  0  0
   -6.7648   -1.5332    0.0000 C   0  0  0  0  0  0  0  0  0  0  0  0
    1.2846   -0.2569    0.0000 C   0  0  0  0  0  0  0  0  0  0  0  0
   -3.1925   -2.2814    0.0000 C   0  0  0  0  0  0  0  0  0  0  0  0
    3.6310   -0.7532    0.0000 C   0  0  0  0  0  0  0  0  0  0  0  0
    6.3638    4.1437    0.0000 C   0  0  0  0  0  0  0  0  0  0  0  0
   -5.1971   -1.5635    0.0000 C   0  0  0  0  0  0  0  0  0  0  0  0
    1.1281   -3.9498    0.0000 C   0  0  0  0  0  0  0  0  0  0  0  0
    1.0873   -1.3976    0.0000 C   0  0  0  0  0  0  0  0  0  0  0  0
   -1.1312   -0.8868    0.0000 C   0  0  0  0  0  0  0  0  0  0  0  0
    0.5432    2.2446    0.0000 C   0  0  0  0  0  0  0  0  0  0  0  0
    3.9666    1.3678    0.0000 C   0  0  0  0  0  0  0  0  0  0  0  0
   -7.9275   -0.8317    0.0000 C   0  0  0  0  0  0  0  0  0  0  0  0
    7.9840    4.6937    0.0000 C   0  0  0  0  0  0  0  0  0  0  0  0
   -0.1655   -0.3982    0.0000 C   0  0  0  0  0  0  0  0  0  0  0  0
    1.0618    1.9372    0.0000 C   0  0  0  0  0  0  0  0  0  0  0  0
   -2.9644   -4.5924    0.0000 C   0  0  0  0  0  0  0  0  0  0  0  0
   -5.1709   -0.2058    0.0000 C   0  0  0  0  0  0  0  0  0  0  0  0
    4.3918    4.0272    0.0000 C   0  0  0  0  0  0  0  0  0  0  0  0
    6.2276    2.0853    0.0000 C   0  0  0  0  0  0  0  0  0  0  0  0
   -1.5739    2.1625    0.0000 C   0  0  0  0  0  0  0  0  0  0  0  0
    1.9789    2.6790    0.0000 C   0  0  0  0  0  0  0  0  0  0  0  0
   -6.3860   -2.2196    0.0000 C   0  0  0  0  0  0  0  0  0  0  0  0
    2.1457   -0.4911    0.0000 C   0  0  0  0  0  0  0  0  0  0  0  0
   -2.7334   -1.5610    0.0000 C   0  0  0  0  0  0  0  0  0  0  0  0
    4.1885   -0.2060    0.0000 C   0  0  0  0  0  0  0  0  0  0  0  0
   -4.4132   -1.5786    0.0000 C   0  0  0  0  0  0  0  0  0  0  0  0
    5.7000    4.5809    0.0000 C   0  0  0  0  0  0  0  0  0  0  0  0
    1.3741   -2.2523    0.0000 C   0  0  0  0  0  0  0  0  0  0  0  0
   -0.3097   -0.9908    0.0000 C   0  0  0  0  0  0  0  0  0  0  0  0
    4.6606    1.7830    0.0000 C   0  0  0  0  0  0  0  0  0  0  0  0
   -0.1333    2.6705    0.0000 C   0  0  0  0  0  0  0  0  0  0  0  0
   -1.8185    1.3902    0.0000 C   0  0  0  0  0  0  0  0  0  0  0  0
    3.6084    3.9444    0.0000 C   0  0  0  0  0  0  0  0  0  0  0  0
    6.7624    2.6790    0.0000 C   0  0  0  0  0  0  0  0  0  0  0  0
    1.8165   -4.4220    0.0000 C   0  0  0  0  0  0  0  0  0  0  0  0
   -6.3598   -0.8620    0.0000 N   0  0  0  0  0  0  0  0  0  0  0  0
   -7.5224   -0.1604    0.0000 N   0  0  0  0  0  0  0  0  0  0  0  0
    8.7113    4.3476    0.0000 N   0  0  0  0  0  0  0  0  0  0  0  0
   -1.5854    0.5989    0.0000 N   0  0  0  0  0  0  0  0  0  0  0  0
    3.0450    3.4003    0.0000 N   0  0  0  0  0  0  0  0  0  0  0  0
    0.3141   -1.1549    0.0000 N   0  0  0  0  0  0  0  0  0  0  0  0
   -4.0344   -2.2651    0.0000 N   0  0  0  0  0  0  0  0  0  0  0  0
    0.4807   -0.5145    0.0000 N   0  0  0  0  0  0  0  0  0  0  0  0
   -5.6021   -2.2348    0.0000 N   0  0  0  0  0  0  0  0  0  0  0  0
    2.8515   -0.8423    0.0000 N   0  0  0  0  0  0  0  0  0  0  0  0
    6.7896    3.4712    0.0000 N   0  0  0  0  0  0  0  0  0  0  0  0
    1.1826   -3.0966    0.0000 N   0  0  0  0  0  0  0  0  0  0  0  0
    1.3659    2.3541    0.0000 N   0  0  0  0  0  0  0  0  0  0  0  0
   -1.8761   -1.4017    0.0000 N   0  0  0  0  0  0  0  0  0  0  0  0
    4.2007    0.5949    0.0000 N   0  0  0  0  0  0  0  0  0  0  0  0
    4.9083    4.6301    0.0000 N   0  0  0  0  0  0  0  0  0  0  0  0
    5.4551    1.8726    0.0000 N   0  0  0  0  0  0  0  0  0  0  0  0
   -0.9302    2.6468    0.0000 N   0  0  0  0  0  0  0  0  0  0  0  0
   -3.0754    2.7951    0.0000 O   0  0  0  0  0  0  0  0  0  0  0  0
   -8.7113   -0.8166    0.0000 O   0  0  0  0  0  0  0  0  0  0  0  0
    8.6270    5.2274    0.0000 O   0  0  0  0  0  0  0  0  0  0  0  0
    0.6226   -0.0820    0.0000 O   0  0  0  0  0  0  0  0  0  0  0  0
    1.8945    2.1762    0.0000 O   0  0  0  0  0  0  0  0  0  0  0  0
    0.5921    2.6201    0.0000 O   0  0  0  0  0  0  0  0  0  0  0  0
   -2.1849   -4.6772    0.0000 O   0  0  0  0  0  0  0  0  0  0  0  0
   -3.4275   -5.2251    0.0000 O   0  0  0  0  0  0  0  0  0  0  0  0
   -5.5497    0.4805    0.0000 O   0  0  0  0  0  0  0  0  0  0  0  0
   -4.3870   -0.2210    0.0000 O   0  0  0  0  0  0  0  0  0  0  0  0
    2.8075    2.8080    0.0000 O   0  0  0  0  0  0  0  0  0  0  0  0
   -6.7911   -2.8909    0.0000 O   0  0  0  0  0  0  0  0  0  0  0  0
    2.8607   -0.1181    0.0000 O   0  0  0  0  0  0  0  0  0  0  0  0
   -3.3769   -1.0159    0.0000 O   0  0  0  0  0  0  0  0  0  0  0  0
    4.9660   -0.5975    0.0000 O   0  0  0  0  0  0  0  0  0  0  0  0
   -4.0082   -0.9074    0.0000 O   0  0  0  0  0  0  0  0  0  0  0  0
    6.0237    5.3704    0.0000 O   0  0  0  0  0  0  0  0  0  0  0  0
    2.0995   -2.6376    0.0000 O   0  0  0  0  0  0  0  0  0  0  0  0
   -0.6268   -1.7625    0.0000 O   0  0  0  0  0  0  0  0  0  0  0  0
    4.8143    2.5682    0.0000 O   0  0  0  0  0  0  0  0  0  0  0  0
   -0.0942    3.5285    0.0000 O   0  0  0  0  0  0  0  0  0  0  0  0
   -2.6565    1.5339    0.0000 O   0  0  0  0  0  0  0  0  0  0  0  0
    3.0479    4.6105    0.0000 O   0  0  0  0  0  0  0  0  0  0  0  0
    7.5793    2.4561    0.0000 O   0  0  0  0  0  0  0  0  0  0  0  0
    2.5238   -4.0838    0.0000 O   0  0  0  0  0  0  0  0  0  0  0  0
    1.7557   -5.2036    0.0000 O   0  0  0  0  0  0  0  0  0  0  0  0
    1.9104    0.1125    0.0000 S   0  0  0  0  0  0  0  0  0  0  0  0
   -0.9385    0.6219    0.0000 S   0  0  0  0  0  0  0  0  0  0  0  0
   -0.2971    1.1162    0.0000 S   0  0  0  0  0  0  0  0  0  0  0  0
    2.4716    0.7397    0.0000 S   0  0  0  0  0  0  0  0  0  0  0  0
    0.0000    0.0000    0.0000 H   0  0  0  0  0  0  0  0  0  0  0  0
    0.0000    0.0000    0.0000 H   0  0  0  0  0  0  0  0  0  0  0  0
    0.0000    0.0000    0.0000 H   0  0  0  0  0  0  0  0  0  0  0  0
    0.0000    0.0000    0.0000 H   0  0  0  0  0  0  0  0  0  0  0  0
    0.0000    0.0000    0.0000 H   0  0  0  0  0  0  0  0  0  0  0  0
    0.0000    0.0000    0.0000 H   0  0  0  0  0  0  0  0  0  0  0  0
    0.0000    0.0000    0.0000 H   0  0  0  0  0  0  0  0  0  0  0  0
    0.0000    0.0000    0.0000 H   0  0  0  0  0  0  0  0  0  0  0  0
    0.0000    0.0000    0.0000 H   0  0  0  0  0  0  0  0  0  0  0  0
    0.0000    0.0000    0.0000 H   0  0  0  0  0  0  0  0  0  0  0  0
    0.0000    0.0000    0.0000 H   0  0  0  0  0  0  0  0  0  0  0  0
    0.0000    0.0000    0.0000 H   0  0  0  0  0  0  0  0  0  0  0  0
    0.0000    0.0000    0.0000 H   0  0  0  0  0  0  0  0  0  0  0  0
    0.0000    0.0000    0.0000 H   0  0  0  0  0  0  0  0  0  0  0  0
    0.0000    0.0000    0.0000 H   0  0  0  0  0  0  0  0  0  0  0  0
    0.0000    0.0000    0.0000 H   0  0  0  0  0  0  0  0  0  0  0  0
    0.0000    0.0000    0.0000 H   0  0  0  0  0  0  0  0  0  0  0  0
    0.0000    0.0000    0.0000 H   0  0  0  0  0  0  0  0  0  0  0  0
    0.0000    0.0000    0.0000 H   0  0  0  0  0  0  0  0  0  0  0  0
    0.0000    0.0000    0.0000 H   0  0  0  0  0  0  0  0  0  0  0  0
    0.0000    0.0000    0.0000 H   0  0  0  0  0  0  0  0  0  0  0  0
    0.0000    0.0000    0.0000 H   0  0  0  0  0  0  0  0  0  0  0  0
    0.0000    0.0000    0.0000 H   0  0  0  0  0  0  0  0  0  0  0  0
    0.0000    0.0000    0.0000 H   0  0  0  0  0  0  0  0  0  0  0  0
    0.0000    0.0000    0.0000 H   0  0  0  0  0  0  0  0  0  0  0  0
    0.0000    0.0000    0.0000 H   0  0  0  0  0  0  0  0  0  0  0  0
    0.0000    0.0000    0.0000 H   0  0  0  0  0  0  0  0  0  0  0  0
    0.0000    0.0000    0.0000 H   0  0  0  0  0  0  0  0  0  0  0  0
    0.0000    0.0000    0.0000 H   0  0  0  0  0  0  0  0  0  0  0  0
    0.0000    0.0000    0.0000 H   0  0  0  0  0  0  0  0  0  0  0  0
    0.0000    0.0000    0.0000 H   0  0  0  0  0  0  0  0  0  0  0  0
    0.0000    0.0000    0.0000 H   0  0  0  0  0  0  0  0  0  0  0  0
    0.0000    0.0000    0.0000 H   0  0  0  0  0  0  0  0  0  0  0  0
    0.0000    0.0000    0.0000 H   0  0  0  0  0  0  0  0  0  0  0  0
    0.0000    0.0000    0.0000 H   0  0  0  0  0  0  0  0  0  0  0  0
    0.0000    0.0000    0.0000 H   0  0  0  0  0  0  0  0  0  0  0  0
    0.0000    0.0000    0.0000 H   0  0  0  0  0  0  0  0  0  0  0  0
    0.0000    0.0000    0.0000 H   0  0  0  0  0  0  0  0  0  0  0  0
    0.0000    0.0000    0.0000 H   0  0  0  0  0  0  0  0  0  0  0  0
    0.0000    0.0000    0.0000 H   0  0  0  0  0  0  0  0  0  0  0  0
    0.0000    0.0000    0.0000 H   0  0  0  0  0  0  0  0  0  0  0  0
    0.0000    0.0000    0.0000 H   0  0  0  0  0  0  0  0  0  0  0  0
    0.0000    0.0000    0.0000 H   0  0  0  0  0  0  0  0  0  0  0  0
    0.0000    0.0000    0.0000 H   0  0  0  0  0  0  0  0  0  0  0  0
    0.0000    0.0000    0.0000 H   0  0  0  0  0  0  0  0  0  0  0  0
    0.0000    0.0000    0.0000 H   0  0  0  0  0  0  0  0  0  0  0  0
    0.0000    0.0000    0.0000 H   0  0  0  0  0  0  0  0  0  0  0  0
    0.0000    0.0000    0.0000 H   0  0  0  0  0  0  0  0  0  0  0  0
    0.0000    0.0000    0.0000 H   0  0  0  0  0  0  0  0  0  0  0  0
    0.0000    0.0000    0.0000 H   0  0  0  0  0  0  0  0  0  0  0  0
    0.0000    0.0000    0.0000 H   0  0  0  0  0  0  0  0  0  0  0  0
    0.0000    0.0000    0.0000 H   0  0  0  0  0  0  0  0  0  0  0  0
    0.0000    0.0000    0.0000 H   0  0  0  0  0  0  0  0  0  0  0  0
    0.0000    0.0000    0.0000 H   0  0  0  0  0  0  0  0  0  0  0  0
    0.0000    0.0000    0.0000 H   0  0  0  0  0  0  0  0  0  0  0  0
    0.0000    0.0000    0.0000 H   0  0  0  0  0  0  0  0  0  0  0  0
    0.0000    0.0000    0.0000 H   0  0  0  0  0  0  0  0  0  0  0  0
    0.0000    0.0000    0.0000 H   0  0  0  0  0  0  0  0  0  0  0  0
    0.0000    0.0000    0.0000 H   0  0  0  0  0  0  0  0  0  0  0  0
    0.0000    0.0000    0.0000 H   0  0  0  0  0  0  0  0  0  0  0  0
    0.0000    0.0000    0.0000 H   0  0  0  0  0  0  0  0  0  0  0  0
    0.0000    0.0000    0.0000 H   0  0  0  0  0  0  0  0  0  0  0  0
    0.0000    0.0000    0.0000 H   0  0  0  0  0  0  0  0  0  0  0  0
    0.0000    0.0000    0.0000 H   0  0  0  0  0  0  0  0  0  0  0  0
    0.0000    0.0000    0.0000 H   0  0  0  0  0  0  0  0  0  0  0  0
    0.0000    0.0000    0.0000 H   0  0  0  0  0  0  0  0  0  0  0  0
    0.0000    0.0000    0.0000 H   0  0  0  0  0  0  0  0  0  0  0  0
    0.0000    0.0000    0.0000 H   0  0  0  0  0  0  0  0  0  0  0  0
    0.0000    0.0000    0.0000 H   0  0  0  0  0  0  0  0  0  0  0  0
    0.0000    0.0000    0.0000 H   0  0  0  0  0  0  0  0  0  0  0  0
    0.0000    0.0000    0.0000 H   0  0  0  0  0  0  0  0  0  0  0  0
    0.0000    0.0000    0.0000 H   0  0  0  0  0  0  0  0  0  0  0  0
    0.0000    0.0000    0.0000 H   0  0  0  0  0  0  0  0  0  0  0  0
    0.0000    0.0000    0.0000 H   0  0  0  0  0  0  0  0  0  0  0  0
    0.0000    0.0000    0.0000 H   0  0  0  0  0  0  0  0  0  0  0  0
    0.0000    0.0000    0.0000 H   0  0  0  0  0  0  0  0  0  0  0  0
    0.0000    0.0000    0.0000 H   0  0  0  0  0  0  0  0  0  0  0  0
    0.0000    0.0000    0.0000 H   0  0  0  0  0  0  0  0  0  0  0  0
    0.0000    0.0000    0.0000 H   0  0  0  0  0  0  0  0  0  0  0  0
    0.0000    0.0000    0.0000 H   0  0  0  0  0  0  0  0  0  0  0  0
    0.0000    0.0000    0.0000 H   0  0  0  0  0  0  0  0  0  0  0  0
    0.0000    0.0000    0.0000 H   0  0  0  0  0  0  0  0  0  0  0  0
    0.0000    0.0000    0.0000 H   0  0  0  0  0  0  0  0  0  0  0  0
    0.0000    0.0000    0.0000 H   0  0  0  0  0  0  0  0  0  0  0  0
    0.0000    0.0000    0.0000 H   0  0  0  0  0  0  0  0  0  0  0  0
    0.0000    0.0000    0.0000 H   0  0  0  0  0  0  0  0  0  0  0  0
    0.0000    0.0000    0.0000 H   0  0  0  0  0  0  0  0  0  0  0  0
    0.0000    0.0000    0.0000 H   0  0  0  0  0  0  0  0  0  0  0  0
    0.0000    0.0000    0.0000 H   0  0  0  0  0  0  0  0  0  0  0  0
    0.0000    0.0000    0.0000 H   0  0  0  0  0  0  0  0  0  0  0  0
    0.0000    0.0000    0.0000 H   0  0  0  0  0  0  0  0  0  0  0  0
    0.0000    0.0000    0.0000 H   0  0  0  0  0  0  0  0  0  0  0  0
    0.0000    0.0000    0.0000 H   0  0  0  0  0  0  0  0  0  0  0  0
    0.0000    0.0000    0.0000 H   0  0  0  0  0  0  0  0  0  0  0  0
    0.0000    0.0000    0.0000 H   0  0  0  0  0  0  0  0  0  0  0  0
    0.0000    0.0000    0.0000 H   0  0  0  0  0  0  0  0  0  0  0  0
    0.0000    0.0000    0.0000 H   0  0  0  0  0  0  0  0  0  0  0  0
    0.0000    0.0000    0.0000 H   0  0  0  0  0  0  0  0  0  0  0  0
    0.0000    0.0000    0.0000 H   0  0  0  0  0  0  0  0  0  0  0  0
    0.0000    0.0000    0.0000 H   0  0  0  0  0  0  0  0  0  0  0  0
    0.0000    0.0000    0.0000 H   0  0  0  0  0  0  0  0  0  0  0  0
    0.0000    0.0000    0.0000 H   0  0  0  0  0  0  0  0  0  0  0  0
    0.0000    0.0000    0.0000 H   0  0  0  0  0  0  0  0  0  0  0  0
    0.0000    0.0000    0.0000 H   0  0  0  0  0  0  0  0  0  0  0  0
 13 11  1  0
 14 12  1  0
 25  1  1  0
 25  2  1  0
 25 15  1  0
 26  3  1  0
 26  4  1  0
 26 16  1  0
 27  5  1  0
 27  6  1  0
 28  7  1  0
 28  8  1  0
 29  9  1  6
 30 10  1  1
 31 17  1  1
 32 11  1  1
 33 12  1  6
 34 15  1  1
 35 18  1  1
 36 19  1  1
 37 16  1  6
 38 21  1  0
 39 22  1  0
 40 23  1  0
 41 24  1  0
 42 17  1  0
 43 18  1  0
 44 20  1  0
 45 13  1  0
 46 14  1  0
 47 19  1  0
 48 27  1  1
 49 28  1  6
 50 30  1  0
 51 29  1  0
 52 31  1  0
 53 32  1  0
 54 33  1  0
 55 34  1  0
 56 36  1  0
 57 35  1  0
 38 58  1  6
 59 39  1  0
 60 41  1  0
 61 40  1  0
 62 50  1  0
 63 48  1  0
 64 49  1  0
 65 37  1  0
 31 66  1  0
 67 42  2  3
 68 43  2  3
 69 20  1  0
 69 62  2  0
 70 29  1  0
 70 63  2  0
 71 38  1  0
 71 44  2  0
 33 72  1  0
 72 56  2  3
 73 32  1  0
 73 59  2  0
 36 74  1  0
 74 52  2  3
 75 34  1  0
 75 53  2  0
 76 35  1  0
 76 64  2  0
 37 77  1  0
 77 58  2  3
 78 40  1  0
 78 51  2  0
 39 79  1  6
 79 54  2  3
 80 41  1  0
 80 55  2  0
 81 48  1  0
 81 57  2  0
 82 49  1  0
 82 60  2  0
 83 50  1  0
 83 61  2  0
 30 84  1  0
 85 42  1  0
 86 43  1  0
 44 87  1  0
 88 45  2  0
 89 45  1  0
 90 46  2  0
 91 46  1  0
 92 47  2  0
 93 47  1  0
 51 94  1  0
 52 95  1  0
 53 96  1  0
 54 97  1  0
 55 98  1  0
 56 99  1  0
 57100  1  0
 58101  1  0
 59102  1  0
 60103  1  0
 61104  1  0
105 62  1  0
 63106  1  0
 64107  1  0
108 65  2  0
109 65  1  0
110 21  1  0
111 22  1  0
112 23  1  0
112111  1  0
113 24  1  0
113110  1  0
  1114  1  0
  1115  1  0
  1116  1  0
  2117  1  0
  2118  1  0
  2119  1  0
  3120  1  0
  3121  1  0
  3122  1  0
  4123  1  0
  4124  1  0
  4125  1  0
  5126  1  0
  5127  1  0
  5128  1  0
  6129  1  0
  6130  1  0
  6131  1  0
  7132  1  0
  7133  1  0
  7134  1  0
  8135  1  0
  8136  1  0
  8137  1  0
  9138  1  0
  9139  1  0
  9140  1  0
 10141  1  0
 10142  1  0
 10143  1  0
 11144  1  0
 11145  1  0
 12146  1  0
 12147  1  0
 13148  1  0
 13149  1  0
 14150  1  0
 14151  1  0
 15152  1  0
 15153  1  0
 16154  1  0
 16155  1  0
 17156  1  0
 17157  1  0
 18158  1  0
 18159  1  0
 19160  1  0
 19161  1  0
 20162  1  0
 20163  1  0
 21164  1  0
 21165  1  0
 22166  1  0
 22167  1  0
 23168  1  0
 23169  1  0
 24170  1  0
 24171  1  0
 25172  1  0
 26173  1  0
 27174  1  0
 28175  1  0
 29176  1  0
 30177  1  0
 31178  1  0
 32179  1  0
 33180  1  0
 34181  1  0
 35182  1  0
 36183  1  0
 37184  1  0
 38185  1  0
 39186  1  0
 40187  1  6
 41188  1  6
 48189  1  0
 49190  1  0
 50191  1  1
 66192  1  0
 66193  1  0
 67194  1  0
 68195  1  0
 84196  1  0
 85197  1  0
 86198  1  0
 87199  1  0
 89200  1  0
 91201  1  0
 93202  1  0
 94203  1  0
 95204  1  0
 96205  1  0
 97206  1  0
 98207  1  0
 99208  1  0
100209  1  0
101210  1  0
102211  1  0
103212  1  0
104213  1  0
105214  1  0
106215  1  0
107216  1  0
109217  1  0
M  END
>  <ALOGPS_LOGP>  (1) 
0.64

>  <ALOGPS_LOGS>  (1) 
-4.01

>  <ALOGPS_SOLUBILITY>  (1) 
1.65e-01 g/l

>  <DATABASE_ID>  (1) 
DB13170

>  <DATABASE_NAME>  (1) 
drugbank

>  <DRUGBANK_ID>  (1) 
DB13170

>  <DRUG_GROUPS>  (1) 
approved

>  <EXACT_MASS>  (1) 
1680.625200237

>  <FORMULA>  (1) 
C65H104N18O26S4

>  <GENERIC_NAME>  (1) 
Plecanatide

>  <INCHI_IDENTIFIER>  (1) 
InChI=1S/C65H104N18O26S4/c1-25(2)15-34-55(98)80-41-24-113-110-21-38(58(101)77-37(65(108)109)16-26(3)4)71-44(87)20-69-62(105)50(30(10)84)83-61(104)40(78-51(94)29(9)70-63(106)48(27(5)6)81-57(100)35(18-43(68)86)76-64(107)49(28(7)8)82-60(41)103)23-112-111-22-39(59(102)73-32(53(96)75-34)11-13-45(88)89)79-54(97)33(12-14-46(90)91)72-56(99)36(19-47(92)93)74-52(95)31(66)17-42(67)85/h25-41,48-50,84H,11-24,66H2,1-10H3,(H2,67,85)(H2,68,86)(H,69,105)(H,70,106)(H,71,87)(H,72,99)(H,73,102)(H,74,95)(H,75,96)(H,76,107)(H,77,101)(H,78,94)(H,79,97)(H,80,98)(H,81,100)(H,82,103)(H,83,104)(H,88,89)(H,90,91)(H,92,93)(H,108,109)/t29-,30+,31-,32-,33-,34-,35-,36-,37-,38-,39-,40-,41-,48-,49-,50-/m0/s1

>  <INCHI_KEY>  (1) 
NSPHQWLKCGGCQR-DLJDZFDSSA-N

>  <JCHEM_ACCEPTOR_COUNT>  (1) 
44

>  <JCHEM_ATOM_COUNT>  (1) 
217

>  <JCHEM_AVERAGE_POLARIZABILITY>  (1) 
164.57739319777357

>  <JCHEM_BIOAVAILABILITY>  (1) 
0

>  <JCHEM_DONOR_COUNT>  (1) 
25

>  <JCHEM_FORMAL_CHARGE>  (1) 
0

>  <JCHEM_GHOSE_FILTER>  (1) 
0

>  <JCHEM_IUPAC>  (1) 
(4S)-4-{[(2S)-2-{[(2S)-2-amino-1-hydroxy-3-(C-hydroxycarbonimidoyl)propylidene]amino}-3-carboxy-1-hydroxypropylidene]amino}-4-{[(1R,4S,7S,10S,13S,16R,19S,22S,25R,32S,38R)-38-{[(1S)-1-carboxy-3-methylbutyl]-C-hydroxycarbonimidoyl}-22-(2-carboxyethyl)-3,6,9,12,15,18,21,24,30,33,36-undecahydroxy-10-[(C-hydroxycarbonimidoyl)methyl]-32-[(1R)-1-hydroxyethyl]-4-methyl-19-(2-methylpropyl)-7,13-bis(propan-2-yl)-27,28,40,41-tetrathia-2,5,8,11,14,17,20,23,31,34,37-undecaazabicyclo[14.13.13]dotetraconta-2,5,8,11,14,17,20,23,30,33,36-undecaen-25-yl]-C-hydroxycarbonimidoyl}butanoic acid

>  <JCHEM_LOGP>  (1) 
3.714340025333332

>  <JCHEM_MDDR_LIKE_RULE>  (1) 
0

>  <JCHEM_NUMBER_OF_RINGS>  (1) 
2

>  <JCHEM_PHYSIOLOGICAL_CHARGE>  (1) 
-8

>  <JCHEM_PKA>  (1) 
2.8155416941738083

>  <JCHEM_PKA_STRONGEST_ACIDIC>  (1) 
2.431854324809871

>  <JCHEM_POLAR_SURFACE_AREA>  (1) 
772.4600000000005

>  <JCHEM_REFRACTIVITY>  (1) 
427.5497999999998

>  <JCHEM_ROTATABLE_BOND_COUNT>  (1) 
28

>  <JCHEM_RULE_OF_FIVE>  (1) 
0

>  <JCHEM_TRADITIONAL_IUPAC>  (1) 
(4S)-4-{[(2S)-2-{[(2S)-2-amino-1-hydroxy-3-(C-hydroxycarbonimidoyl)propylidene]amino}-3-carboxy-1-hydroxypropylidene]amino}-4-{[(1R,4S,7S,10S,13S,16R,19S,22S,25R,32S,38R)-38-{[(1S)-1-carboxy-3-methylbutyl]-C-hydroxycarbonimidoyl}-22-(2-carboxyethyl)-3,6,9,12,15,18,21,24,30,33,36-undecahydroxy-10-(C-hydroxycarbonimidoylmethyl)-32-[(1R)-1-hydroxyethyl]-7,13-diisopropyl-4-methyl-19-(2-methylpropyl)-27,28,40,41-tetrathia-2,5,8,11,14,17,20,23,31,34,37-undecaazabicyclo[14.13.13]dotetraconta-2,5,8,11,14,17,20,23,30,33,36-undecaen-25-yl]-C-hydroxycarbonimidoyl}butanoic acid

>  <JCHEM_VEBER_RULE>  (1) 
0

>  <MOLECULAR_WEIGHT>  (1) 
1681.89

>  <PRODUCTS>  (1) 
Trulance Immediate release

>  <SECONDARY_ACCESSION_NUMBERS>  (1) 
DB06377

>  <SMILES>  (1) 
[H][C@](C)(O)[C@]1([H])N=C(O)[C@]2([H])CSSC[C@]([H])(N=C(O)[C@]([H])(CCC(O)=O)N=C(O)[C@]([H])(CC(O)=O)N=C(O)[C@@]([H])(N)CC(O)=N)C(O)=N[C@@]([H])(CCC(O)=O)C(O)=N[C@@]([H])(CC(C)C)C(O)=N[C@@]([H])(CSSC[C@]([H])(N=C(O)CN=C1O)C(O)=N[C@@]([H])(CC(C)C)C(O)=O)C(O)=N[C@@]([H])(C(C)C)C(O)=N[C@@]([H])(CC(O)=N)C(O)=N[C@@]([H])(C(C)C)C(O)=N[C@@]([H])(C)C(O)=N2

>  <SYNONYMS>  (1) 
Guanilib

$$$$
