
     RDKit          2D

 46 47  0  0  0  0  0  0  0  0999 V2000
    0.7144    3.0937    0.0000 O   0  0  0  0  0  0  0  0  0  0  0  0
    0.7144    2.2687    0.0000 C   0  0  0  0  0  0  0  0  0  0  0  0
    0.0000    1.8562    0.0000 C   0  0  0  0  0  0  0  0  0  0  0  0
   -0.7144    2.2687    0.0000 O   0  0  0  0  0  0  0  0  0  0  0  0
    0.0000    1.0312    0.0000 C   0  0  0  0  0  0  0  0  0  0  0  0
   -0.7144    0.6187    0.0000 O   0  0  0  0  0  0  0  0  0  0  0  0
   -0.7144   -0.2062    0.0000 C   0  0  0  0  0  0  0  0  0  0  0  0
    0.0000   -0.6187    0.0000 C   0  0  0  0  0  0  0  0  0  0  0  0
    0.7144   -0.2062    0.0000 O   0  0  0  0  0  0  0  0  0  0  0  0
    0.0000   -1.4437    0.0000 C   0  0  0  0  0  0  0  0  0  0  0  0
    0.7144   -1.8562    0.0000 O   0  0  0  0  0  0  0  0  0  0  0  0
   -0.7144   -1.8562    0.0000 C   0  0  0  0  0  0  0  0  0  0  0  0
   -0.7144   -2.6812    0.0000 O   0  0  0  0  0  0  0  0  0  0  0  0
   -1.4289   -3.0937    0.0000 P   0  0  0  0  0  0  0  0  0  0  0  0
   -1.4289   -1.4437    0.0000 O   0  0  0  0  0  0  0  0  0  0  0  0
   -1.4289   -0.6187    0.0000 C   0  0  0  0  0  0  0  0  0  0  0  0
   -2.1434   -0.2062    0.0000 C   0  0  0  0  0  0  0  0  0  0  0  0
   -2.1434    0.6187    0.0000 O   0  0  0  0  0  0  0  0  0  0  0  0
   -2.8578   -0.6187    0.0000 O   0  0  0  0  0  0  0  0  0  0  0  0
    0.7144    0.6187    0.0000 O   0  0  0  0  0  0  0  0  0  0  0  0
    1.4289    1.0312    0.0000 C   0  0  0  0  0  0  0  0  0  0  0  0
    1.4289    1.8562    0.0000 C   0  0  0  0  0  0  0  0  0  0  0  0
    2.1434    2.2687    0.0000 P   0  0  0  0  0  0  0  0  0  0  0  0
    2.1434    0.6187    0.0000 C   0  0  0  0  0  0  0  0  0  0  0  0
    2.8578    1.0312    0.0000 O   0  0  0  0  0  0  0  0  0  0  0  0
    2.1434   -0.2062    0.0000 O   0  0  0  0  0  0  0  0  0  0  0  0
    0.0000    0.0000    0.0000 H   0  0  0  0  0  0  0  0  0  0  0  0
    0.0000    0.0000    0.0000 H   0  0  0  0  0  0  0  0  0  0  0  0
    0.0000    0.0000    0.0000 H   0  0  0  0  0  0  0  0  0  0  0  0
    0.0000    0.0000    0.0000 H   0  0  0  0  0  0  0  0  0  0  0  0
    0.0000    0.0000    0.0000 H   0  0  0  0  0  0  0  0  0  0  0  0
    0.0000    0.0000    0.0000 H   0  0  0  0  0  0  0  0  0  0  0  0
    0.0000    0.0000    0.0000 H   0  0  0  0  0  0  0  0  0  0  0  0
    0.0000    0.0000    0.0000 H   0  0  0  0  0  0  0  0  0  0  0  0
    0.0000    0.0000    0.0000 H   0  0  0  0  0  0  0  0  0  0  0  0
    0.0000    0.0000    0.0000 H   0  0  0  0  0  0  0  0  0  0  0  0
    0.0000    0.0000    0.0000 H   0  0  0  0  0  0  0  0  0  0  0  0
    0.0000    0.0000    0.0000 H   0  0  0  0  0  0  0  0  0  0  0  0
    0.0000    0.0000    0.0000 H   0  0  0  0  0  0  0  0  0  0  0  0
    0.0000    0.0000    0.0000 H   0  0  0  0  0  0  0  0  0  0  0  0
    0.0000    0.0000    0.0000 H   0  0  0  0  0  0  0  0  0  0  0  0
    0.0000    0.0000    0.0000 H   0  0  0  0  0  0  0  0  0  0  0  0
    0.0000    0.0000    0.0000 H   0  0  0  0  0  0  0  0  0  0  0  0
    0.0000    0.0000    0.0000 H   0  0  0  0  0  0  0  0  0  0  0  0
    0.0000    0.0000    0.0000 H   0  0  0  0  0  0  0  0  0  0  0  0
    0.0000    0.0000    0.0000 H   0  0  0  0  0  0  0  0  0  0  0  0
  1  2  1  0
  2  3  1  0
  3  4  1  0
  3  5  1  0
  5  6  1  0
  6  7  1  0
  7  8  1  0
  8  9  1  0
  8 10  1  0
 10 11  1  0
 10 12  1  0
 12 13  1  0
 13 14  1  0
 12 15  1  0
 15 16  1  0
  7 16  1  0
 16 17  1  0
 17 18  1  0
 17 19  2  0
  5 20  1  0
 20 21  1  0
 21 22  1  0
  2 22  1  0
 22 23  1  0
 21 24  1  0
 24 25  1  0
 24 26  2  0
  1 27  1  0
  2 28  1  0
  3 29  1  0
  4 30  1  0
  5 31  1  0
  7 32  1  0
  8 33  1  0
  9 34  1  0
 10 35  1  0
 11 36  1  0
 12 37  1  0
 14 38  1  0
 14 39  1  0
 16 40  1  0
 18 41  1  0
 21 42  1  0
 22 43  1  0
 23 44  1  0
 23 45  1  0
 25 46  1  0
M  END
>  <ALOGPS_LOGP>  (1) 
-1.48

>  <ALOGPS_LOGS>  (1) 
-0.29

>  <ALOGPS_SOLUBILITY>  (1) 
2.17e+02 g/l

>  <DATABASE_ID>  (1) 
DB13518

>  <DATABASE_NAME>  (1) 
drugbank

>  <DRUGBANK_ID>  (1) 
DB13518

>  <DRUG_GROUPS>  (1) 
approved; experimental; investigational

>  <EXACT_MASS>  (1) 
418.042999128

>  <FORMULA>  (1) 
C12H20O12P2

>  <GENERIC_NAME>  (1) 
Alginic acid

>  <INCHI_IDENTIFIER>  (1) 
InChI=1S/C12H20O12P2/c13-1-3(15)12(24-26)22-6(9(17)18)5(1)21-11-4(16)2(14)8(25)7(23-11)10(19)20/h1-8,11-16H,25-26H2,(H,17,18)(H,19,20)

>  <INCHI_KEY>  (1) 
FHVDTGUDJYJELY-UHFFFAOYSA-N

>  <JCHEM_ACCEPTOR_COUNT>  (1) 
12

>  <JCHEM_ATOM_COUNT>  (1) 
46

>  <JCHEM_AVERAGE_POLARIZABILITY>  (1) 
35.316477353841066

>  <JCHEM_BIOAVAILABILITY>  (1) 
0

>  <JCHEM_DONOR_COUNT>  (1) 
6

>  <JCHEM_FORMAL_CHARGE>  (1) 
0

>  <JCHEM_GHOSE_FILTER>  (1) 
0

>  <JCHEM_IUPAC>  (1) 
6-{[2-carboxy-4,5-dihydroxy-6-(phosphanyloxy)oxan-3-yl]oxy}-4,5-dihydroxy-3-phosphanyloxane-2-carboxylic acid

>  <JCHEM_LOGP>  (1) 
-4.0842

>  <JCHEM_MDDR_LIKE_RULE>  (1) 
0

>  <JCHEM_NUMBER_OF_RINGS>  (1) 
2

>  <JCHEM_PHYSIOLOGICAL_CHARGE>  (1) 
-2

>  <JCHEM_PKA>  (1) 
3.821374965424614

>  <JCHEM_PKA_STRONGEST_ACIDIC>  (1) 
3.1397070689014512

>  <JCHEM_PKA_STRONGEST_BASIC>  (1) 
-3.3394125774389307

>  <JCHEM_POLAR_SURFACE_AREA>  (1) 
192.43999999999997

>  <JCHEM_REFRACTIVITY>  (1) 
77.9755

>  <JCHEM_ROTATABLE_BOND_COUNT>  (1) 
5

>  <JCHEM_RULE_OF_FIVE>  (1) 
0

>  <JCHEM_TRADITIONAL_IUPAC>  (1) 
6-{[2-carboxy-4,5-dihydroxy-6-(phosphanyloxy)oxan-3-yl]oxy}-4,5-dihydroxy-3-phosphanyloxane-2-carboxylic acid

>  <JCHEM_VEBER_RULE>  (1) 
0

>  <MOLECULAR_WEIGHT>  (1) 
418.2275

>  <PRODUCTS>  (1) 
Gaviscon Butterscotch Flavour Tablets; Gaviscon Extra Strength Butterscotch Flavoured Tablets; Gaviscon Extra Strength Strawberry Fl.tabs; Gaviscon Extra Strength Tablets; Gaviscon Heartburn Relief Tablets; Gaviscon Tablets; Gaviscon Tablets - Butterscotch and Fr.fl.; Gaviscon Tabs Extra Strength; Heartburn Relief; Heartburn Relief - Tab; Rafton Tablets - Fruit Flavour; Tums Dual Action; Zinc and Algin Tab Nu Life

>  <SMILES>  (1) 
OC1C(O)C(OC2C(O)C(O)C(OP)OC2C(O)=O)OC(C1P)C(O)=O

>  <SYNONYMS>  (1) 
algin; alginate

$$$$
