
     RDKit          2D

 25 24  0  0  0  0  0  0  0  0999 V2000
    0.7145   -0.6336    0.0000 C   0  0  0  0  0  0  0  0  0  0  0  0
    0.0000    0.6039    0.0000 C   0  0  0  0  0  0  0  0  0  0  0  0
    1.4289    0.6039    0.0000 C   0  0  0  0  0  0  0  0  0  0  0  0
    1.4289   -1.0461    0.0000 C   0  0  0  0  0  0  0  0  0  0  0  0
    0.0000    1.4289    0.0000 C   0  0  0  0  0  0  0  0  0  0  0  0
    1.4289    1.4289    0.0000 C   0  0  0  0  0  0  0  0  0  0  0  0
    0.7145    0.1914    0.0000 N   0  0  0  0  0  0  0  0  0  0  0  0
    1.4289   -1.8711    0.0000 O   0  0  0  0  0  0  0  0  0  0  0  0
   -0.7145    1.8414    0.0000 O   0  0  0  0  0  0  0  0  0  0  0  0
    2.1434    1.8414    0.0000 O   0  0  0  0  0  0  0  0  0  0  0  0
    0.0000    0.0000    0.0000 H   0  0  0  0  0  0  0  0  0  0  0  0
    0.0000    0.0000    0.0000 H   0  0  0  0  0  0  0  0  0  0  0  0
    0.0000    0.0000    0.0000 H   0  0  0  0  0  0  0  0  0  0  0  0
    0.0000    0.0000    0.0000 H   0  0  0  0  0  0  0  0  0  0  0  0
    0.0000    0.0000    0.0000 H   0  0  0  0  0  0  0  0  0  0  0  0
    0.0000    0.0000    0.0000 H   0  0  0  0  0  0  0  0  0  0  0  0
    0.0000    0.0000    0.0000 H   0  0  0  0  0  0  0  0  0  0  0  0
    0.0000    0.0000    0.0000 H   0  0  0  0  0  0  0  0  0  0  0  0
    0.0000    0.0000    0.0000 H   0  0  0  0  0  0  0  0  0  0  0  0
    0.0000    0.0000    0.0000 H   0  0  0  0  0  0  0  0  0  0  0  0
    0.0000    0.0000    0.0000 H   0  0  0  0  0  0  0  0  0  0  0  0
    0.0000    0.0000    0.0000 H   0  0  0  0  0  0  0  0  0  0  0  0
    0.0000    0.0000    0.0000 H   0  0  0  0  0  0  0  0  0  0  0  0
    0.0000    0.0000    0.0000 H   0  0  0  0  0  0  0  0  0  0  0  0
    0.0000    0.0000    0.0000 H   0  0  0  0  0  0  0  0  0  0  0  0
  4  1  1  0
  5  2  1  0
  6  3  1  0
  7  1  1  0
  7  2  1  0
  7  3  1  0
  8  4  1  0
  9  5  1  0
 10  6  1  0
  1 11  1  0
  1 12  1  0
  2 13  1  0
  2 14  1  0
  3 15  1  0
  3 16  1  0
  4 17  1  0
  4 18  1  0
  5 19  1  0
  5 20  1  0
  6 21  1  0
  6 22  1  0
  8 23  1  0
  9 24  1  0
 10 25  1  0
M  END
>  <ALOGPS_LOGP>  (1) 
-1.38

>  <ALOGPS_LOGS>  (1) 
0.52

>  <ALOGPS_SOLUBILITY>  (1) 
4.97e+02 g/l

>  <DATABASE_ID>  (1) 
DB13747

>  <DATABASE_NAME>  (1) 
drugbank

>  <DRUGBANK_ID>  (1) 
DB13747

>  <DRUG_GROUPS>  (1) 
approved; experimental

>  <EXACT_MASS>  (1) 
149.105193351

>  <FORMULA>  (1) 
C6H15NO3

>  <GENERIC_NAME>  (1) 
Trolamine

>  <INCHI_IDENTIFIER>  (1) 
InChI=1S/C6H15NO3/c8-4-1-7(2-5-9)3-6-10/h8-10H,1-6H2

>  <INCHI_KEY>  (1) 
GSEJCLTVZPLZKY-UHFFFAOYSA-N

>  <JCHEM_ACCEPTOR_COUNT>  (1) 
4

>  <JCHEM_AVERAGE_POLARIZABILITY>  (1) 
16.377970748380932

>  <JCHEM_BIOAVAILABILITY>  (1) 
1

>  <JCHEM_DONOR_COUNT>  (1) 
3

>  <JCHEM_FORMAL_CHARGE>  (1) 
0

>  <JCHEM_GHOSE_FILTER>  (1) 
0

>  <JCHEM_IUPAC>  (1) 
2-[bis(2-hydroxyethyl)amino]ethan-1-ol

>  <JCHEM_LOGP>  (1) 
-1.8801365703333337

>  <JCHEM_MDDR_LIKE_RULE>  (1) 
0

>  <JCHEM_NUMBER_OF_RINGS>  (1) 
0

>  <JCHEM_PHYSIOLOGICAL_CHARGE>  (1) 
1

>  <JCHEM_PKA>  (1) 
15.592488438551062

>  <JCHEM_PKA_STRONGEST_ACIDIC>  (1) 
15.115809304716329

>  <JCHEM_PKA_STRONGEST_BASIC>  (1) 
8.439073054943169

>  <JCHEM_POLAR_SURFACE_AREA>  (1) 
63.93000000000001

>  <JCHEM_REFRACTIVITY>  (1) 
38.864999999999995

>  <JCHEM_ROTATABLE_BOND_COUNT>  (1) 
6

>  <JCHEM_RULE_OF_FIVE>  (1) 
1

>  <JCHEM_TRADITIONAL_IUPAC>  (1) 
triethanolamine

>  <JCHEM_VEBER_RULE>  (1) 
0

>  <MOLECULAR_WEIGHT>  (1) 
149.1882

>  <PRODUCTS>  (1) 
Bee Pollen-jojoba High Moisture Cream; Calenda-cucumber Oil-free Moisturizer; Lecithin-aloe Moisture Cream; Sallys Box Friendly Black Head Three Step Sheet; Tru-micin

>  <SMILES>  (1) 
OCCN(CCO)CCO

>  <SYNONYMS>  (1) 
triethanolamine

$$$$
