
     RDKit          2D

145154  0  0  0  0  0  0  0  0999 V2000
    4.5770   -6.2068    0.0000 C   0  0  0  0  0  0  0  0  0  0  0  0
   -2.9209    5.3237    0.0000 C   0  0  0  0  0  0  0  0  0  0  0  0
    2.9630   -6.5499    0.0000 C   0  0  0  0  0  0  0  0  0  0  0  0
   -4.0249    6.5499    0.0000 C   0  0  0  0  0  0  0  0  0  0  0  0
    6.4037   -2.8968    0.0000 C   0  0  0  0  0  0  0  0  0  0  0  0
   -6.4037    3.8530    0.0000 C   0  0  0  0  0  0  0  0  0  0  0  0
    1.7648   -5.0350    0.0000 C   0  0  0  0  0  0  0  0  0  0  0  0
   -4.4703    1.8899    0.0000 C   0  0  0  0  0  0  0  0  0  0  0  0
    1.5933   -4.2280    0.0000 C   0  0  0  0  0  0  0  0  0  0  0  0
   -3.6857    1.6349    0.0000 C   0  0  0  0  0  0  0  0  0  0  0  0
   -3.9529   -2.9523    0.0000 C   0  0  0  0  0  0  0  0  0  0  0  0
   -2.9967   -4.0142    0.0000 C   0  0  0  0  0  0  0  0  0  0  0  0
   -4.5660   -3.5043    0.0000 C   0  0  0  0  0  0  0  0  0  0  0  0
   -3.6098   -4.5662    0.0000 C   0  0  0  0  0  0  0  0  0  0  0  0
    2.3428    1.1998    0.0000 C   0  0  0  0  0  0  0  0  0  0  0  0
    1.7908    1.8129    0.0000 C   0  0  0  0  0  0  0  0  0  0  0  0
   -1.7705   -2.9101    0.0000 C   0  0  0  0  0  0  0  0  0  0  0  0
   -2.7267   -1.8482    0.0000 C   0  0  0  0  0  0  0  0  0  0  0  0
    2.5853   -5.1212    0.0000 C   0  0  0  0  0  0  0  0  0  0  0  0
   -4.4703    2.7149    0.0000 C   0  0  0  0  0  0  0  0  0  0  0  0
   -1.1574   -2.3581    0.0000 C   0  0  0  0  0  0  0  0  0  0  0  0
   -2.1136   -1.2962    0.0000 C   0  0  0  0  0  0  0  0  0  0  0  0
    0.6818   -0.7020    0.0000 C   0  0  0  0  0  0  0  0  0  0  0  0
   -0.2743    0.3598    0.0000 C   0  0  0  0  0  0  0  0  0  0  0  0
    1.7809   -0.9356    0.0000 C   0  0  0  0  0  0  0  0  0  0  0  0
   -0.3918    1.4774    0.0000 C   0  0  0  0  0  0  0  0  0  0  0  0
    3.4219   -1.1081    0.0000 C   0  0  0  0  0  0  0  0  0  0  0  0
   -0.3918    3.1274    0.0000 C   0  0  0  0  0  0  0  0  0  0  0  0
    4.0249   -5.5937    0.0000 C   0  0  0  0  0  0  0  0  0  0  0  0
   -3.7279    5.1522    0.0000 C   0  0  0  0  0  0  0  0  0  0  0  0
   -3.1682   -3.2072    0.0000 C   0  0  0  0  0  0  0  0  0  0  0  0
   -2.5551   -2.6552    0.0000 C   0  0  0  0  0  0  0  0  0  0  0  0
   -4.3944   -4.3113    0.0000 C   0  0  0  0  0  0  0  0  0  0  0  0
    0.5102    0.1049    0.0000 C   0  0  0  0  0  0  0  0  0  0  0  0
    2.2658   -0.2682    0.0000 C   0  0  0  0  0  0  0  0  0  0  0  0
    0.3226    1.8899    0.0000 C   0  0  0  0  0  0  0  0  0  0  0  0
    3.0863   -0.3544    0.0000 C   0  0  0  0  0  0  0  0  0  0  0  0
    0.3226    2.7149    0.0000 C   0  0  0  0  0  0  0  0  0  0  0  0
    0.0687   -1.2540    0.0000 C   0  0  0  0  0  0  0  0  0  0  0  0
   -0.8874   -0.1921    0.0000 C   0  0  0  0  0  0  0  0  0  0  0  0
    2.1165   -1.6893    0.0000 C   0  0  0  0  0  0  0  0  0  0  0  0
   -1.1062    1.8899    0.0000 C   0  0  0  0  0  0  0  0  0  0  0  0
    2.9370   -1.7756    0.0000 C   0  0  0  0  0  0  0  0  0  0  0  0
   -1.1062    2.7149    0.0000 C   0  0  0  0  0  0  0  0  0  0  0  0
    1.9303    0.4854    0.0000 C   0  0  0  0  0  0  0  0  0  0  0  0
    1.0371    1.4774    0.0000 C   0  0  0  0  0  0  0  0  0  0  0  0
    2.3078   -3.8155    0.0000 C   0  0  0  0  0  0  0  0  0  0  0  0
   -3.2008    2.3024    0.0000 C   0  0  0  0  0  0  0  0  0  0  0  0
    4.2799   -4.8091    0.0000 C   0  0  0  0  0  0  0  0  0  0  0  0
   -3.9828    4.3675    0.0000 C   0  0  0  0  0  0  0  0  0  0  0  0
   -0.7159   -0.9991    0.0000 C   0  0  0  0  0  0  0  0  0  0  0  0
    2.3940   -2.9950    0.0000 C   0  0  0  0  0  0  0  0  0  0  0  0
   -2.3758    2.3024    0.0000 C   0  0  0  0  0  0  0  0  0  0  0  0
    3.7279   -4.1960    0.0000 C   0  0  0  0  0  0  0  0  0  0  0  0
   -3.4308    3.7544    0.0000 C   0  0  0  0  0  0  0  0  0  0  0  0
    5.3418   -3.8530    0.0000 C   0  0  0  0  0  0  0  0  0  0  0  0
   -5.3418    4.8091    0.0000 C   0  0  0  0  0  0  0  0  0  0  0  0
   -5.0075   -4.8633    0.0000 F   0  0  0  0  0  0  0  0  0  0  0  0
    3.5713    0.3129    0.0000 F   0  0  0  0  0  0  0  0  0  0  0  0
    1.0371    3.1274    0.0000 F   0  0  0  0  0  0  0  0  0  0  0  0
    0.2402   -2.0610    0.0000 F   0  0  0  0  0  0  0  0  0  0  0  0
   -1.6720    0.0627    0.0000 F   0  0  0  0  0  0  0  0  0  0  0  0
    1.7809   -2.4430    0.0000 N   0  0  0  0  0  0  0  0  0  0  0  0
   -1.8909    1.6349    0.0000 N   0  0  0  0  0  0  0  0  0  0  0  0
    3.1085   -2.5825    0.0000 N   0  0  0  0  0  0  0  0  0  0  0  0
   -1.8909    2.9698    0.0000 N   0  0  0  0  0  0  0  0  0  0  0  0
    5.0869   -4.6376    0.0000 N   0  0  0  0  0  0  0  0  0  0  0  0
   -4.7898    4.1960    0.0000 N   0  0  0  0  0  0  0  0  0  0  0  0
   -1.3290   -1.5511    0.0000 N   0  0  0  0  0  0  0  0  0  0  0  0
    2.9209   -4.3675    0.0000 N   0  0  0  0  0  0  0  0  0  0  0  0
   -3.6857    2.9698    0.0000 N   0  0  0  0  0  0  0  0  0  0  0  0
    1.1233    0.6569    0.0000 N   0  0  0  0  0  0  0  0  0  0  0  0
    3.9828   -3.4114    0.0000 O   0  0  0  0  0  0  0  0  0  0  0  0
   -2.6238    3.9260    0.0000 O   0  0  0  0  0  0  0  0  0  0  0  0
    4.7898   -3.2399    0.0000 O   0  0  0  0  0  0  0  0  0  0  0  0
   -5.0869    5.5937    0.0000 O   0  0  0  0  0  0  0  0  0  0  0  0
    3.2180   -5.7653    0.0000 O   0  0  0  0  0  0  0  0  0  0  0  0
   -4.2799    5.7653    0.0000 O   0  0  0  0  0  0  0  0  0  0  0  0
    6.1488   -3.6814    0.0000 O   0  0  0  0  0  0  0  0  0  0  0  0
   -6.1488    4.6376    0.0000 O   0  0  0  0  0  0  0  0  0  0  0  0
    0.0000    0.0000    0.0000 H   0  0  0  0  0  0  0  0  0  0  0  0
    0.0000    0.0000    0.0000 H   0  0  0  0  0  0  0  0  0  0  0  0
    0.0000    0.0000    0.0000 H   0  0  0  0  0  0  0  0  0  0  0  0
    0.0000    0.0000    0.0000 H   0  0  0  0  0  0  0  0  0  0  0  0
    0.0000    0.0000    0.0000 H   0  0  0  0  0  0  0  0  0  0  0  0
    0.0000    0.0000    0.0000 H   0  0  0  0  0  0  0  0  0  0  0  0
    0.0000    0.0000    0.0000 H   0  0  0  0  0  0  0  0  0  0  0  0
    0.0000    0.0000    0.0000 H   0  0  0  0  0  0  0  0  0  0  0  0
    0.0000    0.0000    0.0000 H   0  0  0  0  0  0  0  0  0  0  0  0
    0.0000    0.0000    0.0000 H   0  0  0  0  0  0  0  0  0  0  0  0
    0.0000    0.0000    0.0000 H   0  0  0  0  0  0  0  0  0  0  0  0
    0.0000    0.0000    0.0000 H   0  0  0  0  0  0  0  0  0  0  0  0
    0.0000    0.0000    0.0000 H   0  0  0  0  0  0  0  0  0  0  0  0
    0.0000    0.0000    0.0000 H   0  0  0  0  0  0  0  0  0  0  0  0
    0.0000    0.0000    0.0000 H   0  0  0  0  0  0  0  0  0  0  0  0
    0.0000    0.0000    0.0000 H   0  0  0  0  0  0  0  0  0  0  0  0
    0.0000    0.0000    0.0000 H   0  0  0  0  0  0  0  0  0  0  0  0
    0.0000    0.0000    0.0000 H   0  0  0  0  0  0  0  0  0  0  0  0
    0.0000    0.0000    0.0000 H   0  0  0  0  0  0  0  0  0  0  0  0
    0.0000    0.0000    0.0000 H   0  0  0  0  0  0  0  0  0  0  0  0
    0.0000    0.0000    0.0000 H   0  0  0  0  0  0  0  0  0  0  0  0
    0.0000    0.0000    0.0000 H   0  0  0  0  0  0  0  0  0  0  0  0
    0.0000    0.0000    0.0000 H   0  0  0  0  0  0  0  0  0  0  0  0
    0.0000    0.0000    0.0000 H   0  0  0  0  0  0  0  0  0  0  0  0
    0.0000    0.0000    0.0000 H   0  0  0  0  0  0  0  0  0  0  0  0
    0.0000    0.0000    0.0000 H   0  0  0  0  0  0  0  0  0  0  0  0
    0.0000    0.0000    0.0000 H   0  0  0  0  0  0  0  0  0  0  0  0
    0.0000    0.0000    0.0000 H   0  0  0  0  0  0  0  0  0  0  0  0
    0.0000    0.0000    0.0000 H   0  0  0  0  0  0  0  0  0  0  0  0
    0.0000    0.0000    0.0000 H   0  0  0  0  0  0  0  0  0  0  0  0
    0.0000    0.0000    0.0000 H   0  0  0  0  0  0  0  0  0  0  0  0
    0.0000    0.0000    0.0000 H   0  0  0  0  0  0  0  0  0  0  0  0
    0.0000    0.0000    0.0000 H   0  0  0  0  0  0  0  0  0  0  0  0
    0.0000    0.0000    0.0000 H   0  0  0  0  0  0  0  0  0  0  0  0
    0.0000    0.0000    0.0000 H   0  0  0  0  0  0  0  0  0  0  0  0
    0.0000    0.0000    0.0000 H   0  0  0  0  0  0  0  0  0  0  0  0
    0.0000    0.0000    0.0000 H   0  0  0  0  0  0  0  0  0  0  0  0
    0.0000    0.0000    0.0000 H   0  0  0  0  0  0  0  0  0  0  0  0
    0.0000    0.0000    0.0000 H   0  0  0  0  0  0  0  0  0  0  0  0
    0.0000    0.0000    0.0000 H   0  0  0  0  0  0  0  0  0  0  0  0
    0.0000    0.0000    0.0000 H   0  0  0  0  0  0  0  0  0  0  0  0
    0.0000    0.0000    0.0000 H   0  0  0  0  0  0  0  0  0  0  0  0
    0.0000    0.0000    0.0000 H   0  0  0  0  0  0  0  0  0  0  0  0
    0.0000    0.0000    0.0000 H   0  0  0  0  0  0  0  0  0  0  0  0
    0.0000    0.0000    0.0000 H   0  0  0  0  0  0  0  0  0  0  0  0
    0.0000    0.0000    0.0000 H   0  0  0  0  0  0  0  0  0  0  0  0
    0.0000    0.0000    0.0000 H   0  0  0  0  0  0  0  0  0  0  0  0
    0.0000    0.0000    0.0000 H   0  0  0  0  0  0  0  0  0  0  0  0
    0.0000    0.0000    0.0000 H   0  0  0  0  0  0  0  0  0  0  0  0
    0.0000    0.0000    0.0000 H   0  0  0  0  0  0  0  0  0  0  0  0
    0.0000    0.0000    0.0000 H   0  0  0  0  0  0  0  0  0  0  0  0
    0.0000    0.0000    0.0000 H   0  0  0  0  0  0  0  0  0  0  0  0
    0.0000    0.0000    0.0000 H   0  0  0  0  0  0  0  0  0  0  0  0
    0.0000    0.0000    0.0000 H   0  0  0  0  0  0  0  0  0  0  0  0
    0.0000    0.0000    0.0000 H   0  0  0  0  0  0  0  0  0  0  0  0
    0.0000    0.0000    0.0000 H   0  0  0  0  0  0  0  0  0  0  0  0
    0.0000    0.0000    0.0000 H   0  0  0  0  0  0  0  0  0  0  0  0
    0.0000    0.0000    0.0000 H   0  0  0  0  0  0  0  0  0  0  0  0
    0.0000    0.0000    0.0000 H   0  0  0  0  0  0  0  0  0  0  0  0
    0.0000    0.0000    0.0000 H   0  0  0  0  0  0  0  0  0  0  0  0
    0.0000    0.0000    0.0000 H   0  0  0  0  0  0  0  0  0  0  0  0
    0.0000    0.0000    0.0000 H   0  0  0  0  0  0  0  0  0  0  0  0
    0.0000    0.0000    0.0000 H   0  0  0  0  0  0  0  0  0  0  0  0
    0.0000    0.0000    0.0000 H   0  0  0  0  0  0  0  0  0  0  0  0
    0.0000    0.0000    0.0000 H   0  0  0  0  0  0  0  0  0  0  0  0
  9  7  1  0
 10  8  1  0
 13 11  2  0
 14 12  1  0
 16 15  1  0
 19  7  1  0
 20  8  1  0
 21 17  1  0
 22 18  1  0
 29  1  1  6
 30  2  1  6
 31 11  1  0
 31 12  2  0
 32 17  1  0
 32 18  1  0
 32 31  1  0
 33 13  1  0
 33 14  2  0
 34 23  2  0
 34 24  1  0
 35 25  2  0
 36 26  2  0
 37 27  2  0
 37 35  1  0
 38 28  2  0
 38 36  1  0
 39 23  1  0
 40 24  2  0
 41 25  1  0
 42 26  1  0
 43 27  1  0
 43 41  2  0
 44 28  1  0
 44 42  2  0
 45 15  1  0
 45 35  1  6
 46 16  1  0
 46 36  1  1
 47  9  1  0
 48 10  1  0
 49 29  1  0
 50 30  1  0
 51 39  2  0
 51 40  1  0
 47 52  1  1
 48 53  1  6
 49 54  1  1
 50 55  1  1
 58 33  1  0
 59 37  1  0
 60 38  1  0
 61 39  1  0
 62 40  1  0
 63 41  1  0
 63 52  2  0
 64 42  1  0
 64 53  2  0
 65 43  1  0
 65 52  1  0
 66 44  1  0
 66 53  1  0
 49 67  1  0
 67 56  2  3
 50 68  1  0
 68 57  2  3
 69 21  1  0
 69 22  1  0
 69 51  1  0
 70 19  1  0
 70 47  1  0
 70 54  1  0
 71 20  1  0
 71 48  1  0
 71 55  1  0
 72 34  1  0
 72 45  1  0
 72 46  1  0
 73 54  2  0
 74 55  2  0
 56 75  1  0
 57 76  1  0
 77  3  1  0
 77 29  1  0
 78  4  1  0
 78 30  1  0
 79  5  1  0
 79 56  1  0
 80  6  1  0
 80 57  1  0
  1 81  1  0
  1 82  1  0
  1 83  1  0
  2 84  1  0
  2 85  1  0
  2 86  1  0
  3 87  1  0
  3 88  1  0
  3 89  1  0
  4 90  1  0
  4 91  1  0
  4 92  1  0
  5 93  1  0
  5 94  1  0
  5 95  1  0
  6 96  1  0
  6 97  1  0
  6 98  1  0
  7 99  1  0
  7100  1  0
  8101  1  0
  8102  1  0
  9103  1  0
  9104  1  0
 10105  1  0
 10106  1  0
 11107  1  0
 12108  1  0
 13109  1  0
 14110  1  0
 15111  1  0
 15112  1  0
 16113  1  0
 16114  1  0
 17115  1  0
 17116  1  0
 18117  1  0
 18118  1  0
 19119  1  0
 19120  1  0
 20121  1  0
 20122  1  0
 21123  1  0
 21124  1  0
 22125  1  0
 22126  1  0
 23127  1  0
 24128  1  0
 25129  1  0
 26130  1  0
 27131  1  0
 28132  1  0
 29133  1  0
 30134  1  0
 32135  1  0
 45136  1  0
 46137  1  0
 47138  1  0
 48139  1  0
 49140  1  0
 50141  1  0
 65142  1  0
 66143  1  0
 75144  1  0
 76145  1  0
M  END
>  <ALOGPS_LOGP>  (1) 
5.89

>  <ALOGPS_LOGS>  (1) 
-5.32

>  <ALOGPS_SOLUBILITY>  (1) 
5.38e-03 g/l

>  <DATABASE_ID>  (1) 
DB13878

>  <DATABASE_NAME>  (1) 
drugbank

>  <DRUGBANK_ID>  (1) 
DB13878

>  <DRUG_GROUPS>  (1) 
approved

>  <EXACT_MASS>  (1) 
1112.490699908

>  <FORMULA>  (1) 
C57H65F5N10O8

>  <GENERIC_NAME>  (1) 
Pibrentasvir

>  <INCHI_IDENTIFIER>  (1) 
InChI=1S/C57H65F5N10O8/c1-29(77-3)49(67-56(75)79-5)54(73)70-19-7-9-47(70)52-63-41-25-35(37(59)27-43(41)65-52)45-15-16-46(72(45)34-23-39(61)51(40(62)24-34)69-21-17-32(18-22-69)31-11-13-33(58)14-12-31)36-26-42-44(28-38(36)60)66-53(64-42)48-10-8-20-71(48)55(74)50(30(2)78-4)68-57(76)80-6/h11-14,23-30,32,45-50H,7-10,15-22H2,1-6H3,(H,63,65)(H,64,66)(H,67,75)(H,68,76)/t29-,30-,45-,46-,47+,48+,49+,50+/m1/s1

>  <INCHI_KEY>  (1) 
VJYSBPDEJWLKKJ-NLIMODCCSA-N

>  <JCHEM_ACCEPTOR_COUNT>  (1) 
14

>  <JCHEM_ATOM_COUNT>  (1) 
145

>  <JCHEM_AVERAGE_POLARIZABILITY>  (1) 
114.92808196045056

>  <JCHEM_BIOAVAILABILITY>  (1) 
0

>  <JCHEM_DONOR_COUNT>  (1) 
4

>  <JCHEM_FORMAL_CHARGE>  (1) 
0

>  <JCHEM_GHOSE_FILTER>  (1) 
0

>  <JCHEM_IUPAC>  (1) 
(2S,3R)-1-[(2S)-2-{5-[(2R,5R)-1-{3,5-difluoro-4-[4-(4-fluorophenyl)piperidin-1-yl]phenyl}-5-{6-fluoro-2-[(2S)-1-[(2S,3R)-2-{[hydroxy(methoxy)methylidene]amino}-3-methoxybutanoyl]pyrrolidin-2-yl]-1H-1,3-benzodiazol-5-yl}pyrrolidin-2-yl]-6-fluoro-1H-1,3-benzodiazol-2-yl}pyrrolidin-1-yl]-2-{[hydroxy(methoxy)methylidene]amino}-3-methoxybutan-1-one

>  <JCHEM_LOGP>  (1) 
6.933756299055901

>  <JCHEM_MDDR_LIKE_RULE>  (1) 
1

>  <JCHEM_NUMBER_OF_RINGS>  (1) 
10

>  <JCHEM_PHYSIOLOGICAL_CHARGE>  (1) 
0

>  <JCHEM_PKA>  (1) 
4.122692235208824

>  <JCHEM_PKA_STRONGEST_ACIDIC>  (1) 
3.577330598972365

>  <JCHEM_PKA_STRONGEST_BASIC>  (1) 
5.3359759000787355

>  <JCHEM_POLAR_SURFACE_AREA>  (1) 
206.55999999999992

>  <JCHEM_REFRACTIVITY>  (1) 
286.41539999999986

>  <JCHEM_ROTATABLE_BOND_COUNT>  (1) 
17

>  <JCHEM_RULE_OF_FIVE>  (1) 
0

>  <JCHEM_TRADITIONAL_IUPAC>  (1) 
(2S,3R)-1-[(2S)-2-{5-[(2R,5R)-1-{3,5-difluoro-4-[4-(4-fluorophenyl)piperidin-1-yl]phenyl}-5-{6-fluoro-2-[(2S)-1-[(2S,3R)-2-{[hydroxy(methoxy)methylidene]amino}-3-methoxybutanoyl]pyrrolidin-2-yl]-1H-1,3-benzodiazol-5-yl}pyrrolidin-2-yl]-6-fluoro-1H-1,3-benzodiazol-2-yl}pyrrolidin-1-yl]-2-{[hydroxy(methoxy)methylidene]amino}-3-methoxybutan-1-one

>  <JCHEM_VEBER_RULE>  (1) 
0

>  <MOLECULAR_WEIGHT>  (1) 
1113.201

>  <PRODUCTS>  (1) 
Maviret; Mavyret

>  <SMILES>  (1) 
[H][C@](C)(OC)[C@]([H])(N=C(O)OC)C(=O)N1CCC[C@@]1([H])C1=NC2=C(N1)C=C(F)C(=C2)[C@@]1([H])CC[C@@]([H])(N1C1=CC(F)=C(N2CCC(CC2)C2=CC=C(F)C=C2)C(F)=C1)C1=CC2=C(NC(=N2)[C@]2([H])CCCN2C(=O)[C@@]([H])(N=C(O)OC)[C@@]([H])(C)OC)C=C1F

$$$$
