
     RDKit          2D

 38 38  0  0  1  0  0  0  0  0999 V2000
   15.3503   -7.0568    0.0000 O   0  0  0  0  0  0  0  0  0  0  0  0
   16.0648  -10.7693    0.0000 O   0  0  0  0  0  0  0  0  0  0  0  0
   18.2082   -9.5318    0.0000 O   0  0  0  0  0  0  0  0  0  0  0  0
   13.9214   -7.8818    0.0000 N   0  0  0  0  0  0  0  0  0  0  0  0
   13.2069   -8.2943    0.0000 C   0  0  0  0  0  0  0  0  0  0  0  0
   15.3503   -7.8818    0.0000 C   0  0  0  0  0  0  0  0  0  0  0  0
   14.6358   -8.2943    0.0000 C   0  0  0  0  0  0  0  0  0  0  0  0
   16.7792  -10.3568    0.0000 C   0  0  0  0  0  0  0  0  0  0  0  0
   12.7944   -7.5799    0.0000 C   0  0  0  0  0  0  0  0  0  0  0  0
   12.4924   -8.7068    0.0000 C   0  0  0  0  0  0  0  0  0  0  0  0
   13.6194   -9.0088    0.0000 C   0  0  0  0  0  0  0  0  0  0  0  0
   17.4937   -9.1193    0.0000 C   0  0  0  0  0  0  0  0  0  0  0  0
   16.7792   -9.5318    0.0000 C   0  0  0  0  0  0  0  0  0  0  0  0
   16.0648   -8.2943    0.0000 C   0  0  0  0  0  0  0  0  0  0  0  0
   16.0648   -9.1193    0.0000 C   0  0  0  0  0  0  0  0  0  0  0  0
   17.4937   -8.2943    0.0000 C   0  0  0  0  0  0  0  0  0  0  0  0
   16.7792   -7.8818    0.0000 C   0  0  0  0  0  0  0  0  0  0  0  0
    0.0000    0.0000    0.0000 H   0  0  0  0  0  0  0  0  0  0  0  0
    0.0000    0.0000    0.0000 H   0  0  0  0  0  0  0  0  0  0  0  0
    0.0000    0.0000    0.0000 H   0  0  0  0  0  0  0  0  0  0  0  0
    0.0000    0.0000    0.0000 H   0  0  0  0  0  0  0  0  0  0  0  0
    0.0000    0.0000    0.0000 H   0  0  0  0  0  0  0  0  0  0  0  0
    0.0000    0.0000    0.0000 H   0  0  0  0  0  0  0  0  0  0  0  0
    0.0000    0.0000    0.0000 H   0  0  0  0  0  0  0  0  0  0  0  0
    0.0000    0.0000    0.0000 H   0  0  0  0  0  0  0  0  0  0  0  0
    0.0000    0.0000    0.0000 H   0  0  0  0  0  0  0  0  0  0  0  0
    0.0000    0.0000    0.0000 H   0  0  0  0  0  0  0  0  0  0  0  0
    0.0000    0.0000    0.0000 H   0  0  0  0  0  0  0  0  0  0  0  0
    0.0000    0.0000    0.0000 H   0  0  0  0  0  0  0  0  0  0  0  0
    0.0000    0.0000    0.0000 H   0  0  0  0  0  0  0  0  0  0  0  0
    0.0000    0.0000    0.0000 H   0  0  0  0  0  0  0  0  0  0  0  0
    0.0000    0.0000    0.0000 H   0  0  0  0  0  0  0  0  0  0  0  0
    0.0000    0.0000    0.0000 H   0  0  0  0  0  0  0  0  0  0  0  0
    0.0000    0.0000    0.0000 H   0  0  0  0  0  0  0  0  0  0  0  0
    0.0000    0.0000    0.0000 H   0  0  0  0  0  0  0  0  0  0  0  0
    0.0000    0.0000    0.0000 H   0  0  0  0  0  0  0  0  0  0  0  0
    0.0000    0.0000    0.0000 H   0  0  0  0  0  0  0  0  0  0  0  0
    0.0000    0.0000    0.0000 H   0  0  0  0  0  0  0  0  0  0  0  0
  6  1  1  6
  2  8  1  0
  3 12  1  0
  4  5  1  0
  4  7  1  0
  5  9  1  0
  5 10  1  0
  5 11  1  0
  6  7  1  0
  6 14  1  0
  8 13  1  0
 12 13  2  0
 12 16  1  0
 13 15  1  0
 14 15  2  0
 14 17  1  0
 16 17  2  0
  1 18  1  0
  2 19  1  0
  3 20  1  0
  4 21  1  0
  6 22  1  0
  7 23  1  0
  7 24  1  0
  8 25  1  0
  8 26  1  0
  9 27  1  0
  9 28  1  0
  9 29  1  0
 10 30  1  0
 10 31  1  0
 10 32  1  0
 11 33  1  0
 11 34  1  0
 11 35  1  0
 15 36  1  0
 16 37  1  0
 17 38  1  0
M  END
>  <ALOGPS_LOGP>  (1) 
0.44

>  <ALOGPS_LOGS>  (1) 
-2.05

>  <ALOGPS_SOLUBILITY>  (1) 
2.15e+00 g/l

>  <DATABASE_ID>  (1) 
DB13139

>  <DATABASE_NAME>  (1) 
drugbank

>  <DRUGBANK_ID>  (1) 
DB13139

>  <DRUG_GROUPS>  (1) 
approved

>  <EXACT_MASS>  (1) 
239.152143543

>  <FORMULA>  (1) 
C13H21NO3

>  <GENERIC_NAME>  (1) 
Levosalbutamol

>  <INCHI_IDENTIFIER>  (1) 
InChI=1S/C13H21NO3/c1-13(2,3)14-7-12(17)9-4-5-11(16)10(6-9)8-15/h4-6,12,14-17H,7-8H2,1-3H3/t12-/m0/s1

>  <INCHI_KEY>  (1) 
NDAUXUAQIAJITI-LBPRGKRZSA-N

>  <JCHEM_ACCEPTOR_COUNT>  (1) 
4

>  <JCHEM_AVERAGE_POLARIZABILITY>  (1) 
26.866307645500285

>  <JCHEM_BIOAVAILABILITY>  (1) 
1

>  <JCHEM_DONOR_COUNT>  (1) 
4

>  <JCHEM_FORMAL_CHARGE>  (1) 
0

>  <JCHEM_GHOSE_FILTER>  (1) 
1

>  <JCHEM_IUPAC>  (1) 
4-[(1R)-2-(tert-butylamino)-1-hydroxyethyl]-2-(hydroxymethyl)phenol

>  <JCHEM_LOGP>  (1) 
0.34441615099949047

>  <JCHEM_MDDR_LIKE_RULE>  (1) 
0

>  <JCHEM_NUMBER_OF_RINGS>  (1) 
1

>  <JCHEM_PHYSIOLOGICAL_CHARGE>  (1) 
1

>  <JCHEM_PKA>  (1) 
14.17970015088174

>  <JCHEM_PKA_STRONGEST_ACIDIC>  (1) 
10.121162873207071

>  <JCHEM_PKA_STRONGEST_BASIC>  (1) 
9.403548944560061

>  <JCHEM_POLAR_SURFACE_AREA>  (1) 
72.72

>  <JCHEM_REFRACTIVITY>  (1) 
67.87090000000002

>  <JCHEM_ROTATABLE_BOND_COUNT>  (1) 
5

>  <JCHEM_RULE_OF_FIVE>  (1) 
1

>  <JCHEM_TRADITIONAL_IUPAC>  (1) 
ventolin

>  <JCHEM_VEBER_RULE>  (1) 
0

>  <MOLECULAR_WEIGHT>  (1) 
239.3107

>  <PRODUCTS>  (1) 
Levalbuterol; Levalbuterol Hydrochloride; Levalbuterol Inhalation; Xopenex

>  <SALTS>  (1) 
Levalbuterol hydrochloride

>  <SECONDARY_ACCESSION_NUMBERS>  (1) 
DB05761

>  <SMILES>  (1) 
CC(C)(C)NC[C@H](O)C1=CC(CO)=C(O)C=C1

>  <SYNONYMS>  (1) 
(-)-Albuterol; (-)-Salbutamol; (R)-salbutamol; Levalbuterol; R-salbutamol

$$$$
