
     RDKit          2D

 47 49  0  0  0  0  0  0  0  0999 V2000
    0.8288    1.1345    0.0000 C   0  0  0  0  0  0  0  0  0  0  0  0
    3.3239    4.9368    0.0000 C   0  0  0  0  0  0  0  0  0  0  0  0
   -0.5215    3.8895    0.0000 C   0  0  0  0  0  0  0  0  0  0  0  0
   -1.6776    3.0496    0.0000 C   0  0  0  0  0  0  0  0  0  0  0  0
   -1.0064    4.5569    0.0000 C   0  0  0  0  0  0  0  0  0  0  0  0
   -2.1625    3.7170    0.0000 C   0  0  0  0  0  0  0  0  0  0  0  0
    1.1579    4.6668    0.0000 C   0  0  0  0  0  0  0  0  0  0  0  0
    0.6059    4.0537    0.0000 C   0  0  0  0  0  0  0  0  0  0  0  0
    2.2198    3.7106    0.0000 C   0  0  0  0  0  0  0  0  0  0  0  0
    2.4685    1.8646    0.0000 C   0  0  0  0  0  0  0  0  0  0  0  0
    4.6119    2.2771    0.0000 C   0  0  0  0  0  0  0  0  0  0  0  0
    1.0004    1.9415    0.0000 C   0  0  0  0  0  0  0  0  0  0  0  0
   -0.8571    3.1358    0.0000 C   0  0  0  0  0  0  0  0  0  0  0  0
   -1.8269    4.4707    0.0000 C   0  0  0  0  0  0  0  0  0  0  0  0
    1.9649    4.4953    0.0000 C   0  0  0  0  0  0  0  0  0  0  0  0
    1.7540    2.2771    0.0000 C   0  0  0  0  0  0  0  0  0  0  0  0
    1.6678    3.0975    0.0000 C   0  0  0  0  0  0  0  0  0  0  0  0
    0.8608    3.2691    0.0000 C   0  0  0  0  0  0  0  0  0  0  0  0
    5.3264    1.8646    0.0000 C   0  0  0  0  0  0  0  0  0  0  0  0
    3.1830    2.2771    0.0000 C   0  0  0  0  0  0  0  0  0  0  0  0
   -0.3722    2.4684    0.0000 C   0  0  0  0  0  0  0  0  0  0  0  0
   -2.3118    5.1381    0.0000 Cl  0  0  0  0  0  0  0  0  0  0  0  0
    0.4483    2.5546    0.0000 N   0  0  0  0  0  0  0  0  0  0  0  0
    6.0409    2.2771    0.0000 O   0  0  0  0  0  0  0  0  0  0  0  0
    5.3264    1.0396    0.0000 O   0  0  0  0  0  0  0  0  0  0  0  0
    3.1830    3.1021    0.0000 O   0  0  0  0  0  0  0  0  0  0  0  0
   -0.7077    1.7147    0.0000 O   0  0  0  0  0  0  0  0  0  0  0  0
    2.5169    5.1084    0.0000 O   0  0  0  0  0  0  0  0  0  0  0  0
    3.8974    1.8646    0.0000 O   0  0  0  0  0  0  0  0  0  0  0  0
    0.0000    0.0000    0.0000 H   0  0  0  0  0  0  0  0  0  0  0  0
    0.0000    0.0000    0.0000 H   0  0  0  0  0  0  0  0  0  0  0  0
    0.0000    0.0000    0.0000 H   0  0  0  0  0  0  0  0  0  0  0  0
    0.0000    0.0000    0.0000 H   0  0  0  0  0  0  0  0  0  0  0  0
    0.0000    0.0000    0.0000 H   0  0  0  0  0  0  0  0  0  0  0  0
    0.0000    0.0000    0.0000 H   0  0  0  0  0  0  0  0  0  0  0  0
    0.0000    0.0000    0.0000 H   0  0  0  0  0  0  0  0  0  0  0  0
    0.0000    0.0000    0.0000 H   0  0  0  0  0  0  0  0  0  0  0  0
    0.0000    0.0000    0.0000 H   0  0  0  0  0  0  0  0  0  0  0  0
    0.0000    0.0000    0.0000 H   0  0  0  0  0  0  0  0  0  0  0  0
    0.0000    0.0000    0.0000 H   0  0  0  0  0  0  0  0  0  0  0  0
    0.0000    0.0000    0.0000 H   0  0  0  0  0  0  0  0  0  0  0  0
    0.0000    0.0000    0.0000 H   0  0  0  0  0  0  0  0  0  0  0  0
    0.0000    0.0000    0.0000 H   0  0  0  0  0  0  0  0  0  0  0  0
    0.0000    0.0000    0.0000 H   0  0  0  0  0  0  0  0  0  0  0  0
    0.0000    0.0000    0.0000 H   0  0  0  0  0  0  0  0  0  0  0  0
    0.0000    0.0000    0.0000 H   0  0  0  0  0  0  0  0  0  0  0  0
    0.0000    0.0000    0.0000 H   0  0  0  0  0  0  0  0  0  0  0  0
  5  3  2  0
  6  4  1  0
  8  7  2  0
 12  1  1  0
 13  3  1  0
 13  4  2  0
 14  5  1  0
 14  6  2  0
 15  7  1  0
 15  9  2  0
 16 10  1  0
 16 12  2  0
 17  9  1  0
 17 16  1  0
 18  8  1  0
 18 17  2  0
 19 11  1  0
 20 10  1  0
 21 13  1  0
 22 14  1  0
 23 12  1  0
 23 18  1  0
 23 21  1  0
 24 19  2  0
 25 19  1  0
 26 20  2  0
 27 21  2  0
 28  2  1  0
 28 15  1  0
 29 11  1  0
 29 20  1  0
  1 30  1  0
  1 31  1  0
  1 32  1  0
  2 33  1  0
  2 34  1  0
  2 35  1  0
  3 36  1  0
  4 37  1  0
  5 38  1  0
  6 39  1  0
  7 40  1  0
  8 41  1  0
  9 42  1  0
 10 43  1  0
 10 44  1  0
 11 45  1  0
 11 46  1  0
 25 47  1  0
M  END
>  <ALOGPS_LOGP>  (1) 
3.71

>  <ALOGPS_LOGS>  (1) 
-5.26

>  <ALOGPS_SOLUBILITY>  (1) 
2.29e-03 g/l

>  <DATABASE_ID>  (1) 
DB13783

>  <DATABASE_NAME>  (1) 
drugbank

>  <DRUGBANK_ID>  (1) 
DB13783

>  <DRUG_GROUPS>  (1) 
approved; experimental; investigational

>  <EXACT_MASS>  (1) 
415.082265

>  <FORMULA>  (1) 
C21H18ClNO6

>  <GENERIC_NAME>  (1) 
Acemetacin

>  <INCHI_IDENTIFIER>  (1) 
InChI=1S/C21H18ClNO6/c1-12-16(10-20(26)29-11-19(24)25)17-9-15(28-2)7-8-18(17)23(12)21(27)13-3-5-14(22)6-4-13/h3-9H,10-11H2,1-2H3,(H,24,25)

>  <INCHI_KEY>  (1) 
FSQKKOOTNAMONP-UHFFFAOYSA-N

>  <INTERNATIONAL_BRANDS>  (1) 
Emflex; Rantudil

>  <JCHEM_ACCEPTOR_COUNT>  (1) 
5

>  <JCHEM_ATOM_COUNT>  (1) 
47

>  <JCHEM_AVERAGE_POLARIZABILITY>  (1) 
41.225578855789436

>  <JCHEM_BIOAVAILABILITY>  (1) 
1

>  <JCHEM_DONOR_COUNT>  (1) 
1

>  <JCHEM_FORMAL_CHARGE>  (1) 
0

>  <JCHEM_GHOSE_FILTER>  (1) 
1

>  <JCHEM_IUPAC>  (1) 
2-({2-[1-(4-chlorobenzoyl)-5-methoxy-2-methyl-1H-indol-3-yl]acetyl}oxy)acetic acid

>  <JCHEM_LOGP>  (1) 
3.153551744

>  <JCHEM_MDDR_LIKE_RULE>  (1) 
1

>  <JCHEM_NUMBER_OF_RINGS>  (1) 
3

>  <JCHEM_PHYSIOLOGICAL_CHARGE>  (1) 
-1

>  <JCHEM_PKA_STRONGEST_ACIDIC>  (1) 
3.2567155421885516

>  <JCHEM_PKA_STRONGEST_BASIC>  (1) 
-2.2657684705329646

>  <JCHEM_POLAR_SURFACE_AREA>  (1) 
94.83000000000001

>  <JCHEM_REFRACTIVITY>  (1) 
105.66429999999997

>  <JCHEM_ROTATABLE_BOND_COUNT>  (1) 
7

>  <JCHEM_RULE_OF_FIVE>  (1) 
1

>  <JCHEM_TRADITIONAL_IUPAC>  (1) 
acemetacin

>  <JCHEM_VEBER_RULE>  (1) 
0

>  <MOLECULAR_WEIGHT>  (1) 
415.83

>  <SMILES>  (1) 
COC1=CC2=C(C=C1)N(C(=O)C1=CC=C(Cl)C=C1)C(C)=C2CC(=O)OCC(O)=O

>  <SYNONYMS>  (1) 
acemetacina; acemetacine; acemetacinum; indometacin carboxymethyl ester; indometacin glycolic ester; indomethacin carboxymethyl ester; indomethacin glycolic ester

$$$$
