
     RDKit          2D

 48 46  0  0  0  0  0  0  0  0999 V2000
   -2.5006    0.4677    0.0000 O   0  0  0  0  0  0  0  0  0  0  0  0
   -1.7861    0.0552    0.0000 C   0  0  0  0  0  0  0  0  0  0  0  0
   -1.0717    0.4677    0.0000 C   0  0  0  0  0  0  0  0  0  0  0  0
   -0.3572    0.0552    0.0000 C   0  0  0  0  0  0  0  0  0  0  0  0
    0.3572    0.4677    0.0000 C   0  0  0  0  0  0  0  0  0  0  0  0
    1.0717    0.0552    0.0000 C   0  0  0  0  0  0  0  0  0  0  0  0
    1.7861    0.4677    0.0000 C   0  0  0  0  0  0  0  0  0  0  0  0
    2.5006    0.0552    0.0000 C   0  0  0  0  0  0  0  0  0  0  0  0
    3.2151    0.4677    0.0000 C   0  0  0  0  0  0  0  0  0  0  0  0
    3.9295    0.0552    0.0000 C   0  0  0  0  0  0  0  0  0  0  0  0
    4.6440    0.4677    0.0000 C   0  0  0  0  0  0  0  0  0  0  0  0
    5.3585    0.0552    0.0000 C   0  0  0  0  0  0  0  0  0  0  0  0
    6.0730    0.4677    0.0000 C   0  0  0  0  0  0  0  0  0  0  0  0
   -3.2151    0.0552    0.0000 C   0  0  0  0  0  0  0  0  0  0  0  0
   -3.2151   -0.7697    0.0000 O   0  0  0  0  0  0  0  0  0  0  0  0
   -3.9295    0.4677    0.0000 C   0  0  0  0  0  0  0  0  0  0  0  0
   -4.6440    0.0552    0.0000 S   0  0  0  0  0  0  0  0  0  0  0  0
   -5.0565    0.7697    0.0000 O   0  0  0  0  0  0  0  0  0  0  0  0
   -4.2315   -0.6592    0.0000 O   0  0  0  0  0  0  0  0  0  0  0  0
   -5.3585   -0.3572    0.0000 O   0  0  0  0  0  0  0  0  0  0  0  0
   -6.0730   -0.7697    0.0000 Na  0  0  0  0  0  0  0  0  0  0  0  0
    0.0000    0.0000    0.0000 H   0  0  0  0  0  0  0  0  0  0  0  0
    0.0000    0.0000    0.0000 H   0  0  0  0  0  0  0  0  0  0  0  0
    0.0000    0.0000    0.0000 H   0  0  0  0  0  0  0  0  0  0  0  0
    0.0000    0.0000    0.0000 H   0  0  0  0  0  0  0  0  0  0  0  0
    0.0000    0.0000    0.0000 H   0  0  0  0  0  0  0  0  0  0  0  0
    0.0000    0.0000    0.0000 H   0  0  0  0  0  0  0  0  0  0  0  0
    0.0000    0.0000    0.0000 H   0  0  0  0  0  0  0  0  0  0  0  0
    0.0000    0.0000    0.0000 H   0  0  0  0  0  0  0  0  0  0  0  0
    0.0000    0.0000    0.0000 H   0  0  0  0  0  0  0  0  0  0  0  0
    0.0000    0.0000    0.0000 H   0  0  0  0  0  0  0  0  0  0  0  0
    0.0000    0.0000    0.0000 H   0  0  0  0  0  0  0  0  0  0  0  0
    0.0000    0.0000    0.0000 H   0  0  0  0  0  0  0  0  0  0  0  0
    0.0000    0.0000    0.0000 H   0  0  0  0  0  0  0  0  0  0  0  0
    0.0000    0.0000    0.0000 H   0  0  0  0  0  0  0  0  0  0  0  0
    0.0000    0.0000    0.0000 H   0  0  0  0  0  0  0  0  0  0  0  0
    0.0000    0.0000    0.0000 H   0  0  0  0  0  0  0  0  0  0  0  0
    0.0000    0.0000    0.0000 H   0  0  0  0  0  0  0  0  0  0  0  0
    0.0000    0.0000    0.0000 H   0  0  0  0  0  0  0  0  0  0  0  0
    0.0000    0.0000    0.0000 H   0  0  0  0  0  0  0  0  0  0  0  0
    0.0000    0.0000    0.0000 H   0  0  0  0  0  0  0  0  0  0  0  0
    0.0000    0.0000    0.0000 H   0  0  0  0  0  0  0  0  0  0  0  0
    0.0000    0.0000    0.0000 H   0  0  0  0  0  0  0  0  0  0  0  0
    0.0000    0.0000    0.0000 H   0  0  0  0  0  0  0  0  0  0  0  0
    0.0000    0.0000    0.0000 H   0  0  0  0  0  0  0  0  0  0  0  0
    0.0000    0.0000    0.0000 H   0  0  0  0  0  0  0  0  0  0  0  0
    0.0000    0.0000    0.0000 H   0  0  0  0  0  0  0  0  0  0  0  0
    0.0000    0.0000    0.0000 H   0  0  0  0  0  0  0  0  0  0  0  0
  1  2  1  0
  2  3  1  0
  3  4  1  0
  4  5  1  0
  5  6  1  0
  6  7  1  0
  7  8  1  0
  8  9  1  0
  9 10  1  0
 10 11  1  0
 11 12  1  0
 12 13  1  0
  1 14  1  0
 14 15  2  0
 14 16  1  0
 16 17  1  0
 17 18  2  0
 17 19  2  0
 17 20  1  0
  2 22  1  0
  2 23  1  0
  3 24  1  0
  3 25  1  0
  4 26  1  0
  4 27  1  0
  5 28  1  0
  5 29  1  0
  6 30  1  0
  6 31  1  0
  7 32  1  0
  7 33  1  0
  8 34  1  0
  8 35  1  0
  9 36  1  0
  9 37  1  0
 10 38  1  0
 10 39  1  0
 11 40  1  0
 11 41  1  0
 12 42  1  0
 12 43  1  0
 13 44  1  0
 13 45  1  0
 13 46  1  0
 16 47  1  0
 16 48  1  0
M  CHG  2  20  -1  21   1
M  END
>  <ALOGPS_LOGP>  (1) 
4.49

>  <ALOGPS_LOGS>  (1) 
-4.76

>  <ALOGPS_SOLUBILITY>  (1) 
5.76e-03 g/l

>  <DATABASE_ID>  (1) 
DB13157

>  <DATABASE_NAME>  (1) 
drugbank

>  <DRUGBANK_ID>  (1) 
DB13157

>  <DRUG_GROUPS>  (1) 
approved; experimental

>  <EXACT_MASS>  (1) 
330.14768942

>  <FORMULA>  (1) 
C14H27NaO5S

>  <GENERIC_NAME>  (1) 
Sodium lauryl sulfoacetate

>  <INCHI_IDENTIFIER>  (1) 
InChI=1S/C14H28O5S.Na/c1-2-3-4-5-6-7-8-9-10-11-12-19-14(15)13-20(16,17)18;/h2-13H2,1H3,(H,16,17,18);/q;+1/p-1

>  <INCHI_KEY>  (1) 
UAJTZZNRJCKXJN-UHFFFAOYSA-M

>  <JCHEM_ACCEPTOR_COUNT>  (1) 
4

>  <JCHEM_ATOM_COUNT>  (1) 
48

>  <JCHEM_AVERAGE_POLARIZABILITY>  (1) 
34.94622356837867

>  <JCHEM_BIOAVAILABILITY>  (1) 
1

>  <JCHEM_DONOR_COUNT>  (1) 
0

>  <JCHEM_FORMAL_CHARGE>  (1) 
0

>  <JCHEM_GHOSE_FILTER>  (1) 
1

>  <JCHEM_IUPAC>  (1) 
sodium 2-(dodecyloxy)-2-oxoethane-1-sulfonate

>  <JCHEM_LOGP>  (1) 
4.0005197830000006

>  <JCHEM_MDDR_LIKE_RULE>  (1) 
0

>  <JCHEM_NUMBER_OF_RINGS>  (1) 
0

>  <JCHEM_PHYSIOLOGICAL_CHARGE>  (1) 
-1

>  <JCHEM_PKA_STRONGEST_ACIDIC>  (1) 
-1.0703414683354397

>  <JCHEM_PKA_STRONGEST_BASIC>  (1) 
-7.273048046190018

>  <JCHEM_POLAR_SURFACE_AREA>  (1) 
83.5

>  <JCHEM_REFRACTIVITY>  (1) 
77.31649999999998

>  <JCHEM_ROTATABLE_BOND_COUNT>  (1) 
14

>  <JCHEM_RULE_OF_FIVE>  (1) 
1

>  <JCHEM_TRADITIONAL_IUPAC>  (1) 
sodium 2-(dodecyloxy)-2-oxoethanesulfonate

>  <JCHEM_VEBER_RULE>  (1) 
0

>  <MOLECULAR_WEIGHT>  (1) 
330.41

>  <PRODUCTS>  (1) 
Microlax Micro Enema; Microlax Micro-enema

>  <SMILES>  (1) 
[Na+].CCCCCCCCCCCCOC(=O)CS([O-])(=O)=O

>  <SYNONYMS>  (1) 
Lathanol; Lathanol LAL; Sulfoacetic acid dodecyl ester S-sodium salt

$$$$
